<nodes>
<node id="0" x="357.605" y="28.0005"/>
<node id="1" x="365.5" y="28.0"/>
<node id="2" x="373.395" y="28.0"/>
<node id="3" x="381.289" y="28.0"/>
<node id="4" x="389.184" y="28.0"/>
<node id="5" x="397.079" y="28.0"/>
<node id="6" x="404.974" y="28.0"/>
<node id="7" x="412.868" y="28.0"/>
<node id="8" x="420.763" y="28.0"/>
<node id="9" x="428.658" y="28.0"/>
<node id="10" x="436.553" y="28.0"/>
<node id="11" x="444.447" y="28.0"/>
<node id="12" x="452.342" y="28.0"/>
<node id="13" x="460.237" y="28.0"/>
<node id="14" x="468.132" y="28.0"/>
<node id="15" x="476.026" y="28.0"/>
<node id="16" x="483.921" y="28.0"/>
<node id="17" x="491.816" y="28.0"/>
<node id="18" x="499.711" y="28.0"/>
<node id="19" x="507.605" y="28.0"/>
<node id="20" x="515.5" y="28.0"/>
<node id="21" x="523.192" y="28.0"/>
<node id="22" x="530.885" y="28.0"/>
<node id="23" x="538.577" y="28.0"/>
<node id="24" x="546.269" y="28.0"/>
<node id="25" x="553.961" y="28.0"/>
<node id="26" x="561.654" y="28.0"/>
<node id="27" x="569.346" y="28.0"/>
<node id="28" x="577.038" y="28.0"/>
<node id="29" x="584.731" y="28.0"/>
<node id="30" x="592.423" y="28.0"/>
<node id="31" x="600.115" y="28.0"/>
<node id="32" x="607.808" y="28.0"/>
<node id="33" x="615.5" y="28.0"/>
<node id="34" x="622.365" y="28.2697"/>
<node id="35" x="629.188" y="29.0773"/>
<node id="36" x="635.926" y="30.4176"/>
<node id="37" x="642.539" y="32.2826"/>
<node id="38" x="648.985" y="34.6605"/>
<node id="39" x="655.224" y="37.5369"/>
<node id="40" x="661.219" y="40.894"/>
<node id="41" x="666.931" y="44.711"/>
<node id="42" x="672.327" y="48.9645"/>
<node id="43" x="677.372" y="53.6282"/>
<node id="44" x="682.036" y="58.6733"/>
<node id="45" x="686.289" y="64.0688"/>
<node id="46" x="690.106" y="69.7814"/>
<node id="47" x="693.463" y="75.7758"/>
<node id="48" x="696.339" y="82.0152"/>
<node id="49" x="698.717" y="88.461"/>
<node id="50" x="700.582" y="95.0736"/>
<node id="51" x="701.923" y="101.812"/>
<node id="52" x="702.73" y="108.635"/>
<node id="53" x="703.0" y="115.5"/>
<node id="54" x="703.0" y="123.278"/>
<node id="55" x="703.0" y="131.056"/>
<node id="56" x="703.0" y="138.833"/>
<node id="57" x="703.0" y="146.611"/>
<node id="58" x="703.0" y="154.389"/>
<node id="59" x="703.0" y="162.167"/>
<node id="60" x="703.0" y="169.944"/>
<node id="61" x="703.0" y="177.722"/>
<node id="62" x="703.0" y="185.5"/>
<node id="63" x="703.0" y="193.278"/>
<node id="64" x="703.0" y="201.056"/>
<node id="65" x="703.0" y="208.833"/>
<node id="66" x="703.0" y="216.611"/>
<node id="67" x="703.0" y="224.389"/>
<node id="68" x="703.0" y="232.167"/>
<node id="69" x="703.0" y="239.944"/>
<node id="70" x="703.0" y="247.722"/>
<node id="71" x="703.0" y="255.5"/>
<node id="72" x="702.73" y="262.365"/>
<node id="73" x="701.923" y="269.188"/>
<node id="74" x="700.582" y="275.926"/>
<node id="75" x="698.717" y="282.539"/>
<node id="76" x="696.339" y="288.985"/>
<node id="77" x="693.463" y="295.224"/>
<node id="78" x="690.106" y="301.219"/>
<node id="79" x="686.289" y="306.931"/>
<node id="80" x="682.035" y="312.327"/>
<node id="81" x="677.372" y="317.372"/>
<node id="82" x="672.327" y="322.035"/>
<node id="83" x="666.931" y="326.289"/>
<node id="84" x="661.219" y="330.106"/>
<node id="85" x="655.224" y="333.463"/>
<node id="86" x="648.985" y="336.339"/>
<node id="87" x="642.539" y="338.717"/>
<node id="88" x="635.926" y="340.582"/>
<node id="89" x="629.188" y="341.923"/>
<node id="90" x="622.365" y="342.73"/>
<node id="91" x="615.5" y="343.0"/>
<node id="92" x="607.687" y="343.0"/>
<node id="93" x="599.875" y="343.0"/>
<node id="94" x="592.062" y="343.0"/>
<node id="95" x="584.25" y="343.0"/>
<node id="96" x="576.437" y="343.0"/>
<node id="97" x="568.625" y="343.0"/>
<node id="98" x="560.812" y="343.0"/>
<node id="99" x="553.0" y="343.0"/>
<node id="100" x="545.187" y="343.0"/>
<node id="101" x="537.375" y="343.0"/>
<node id="102" x="529.562" y="343.0"/>
<node id="103" x="521.75" y="343.0"/>
<node id="104" x="513.937" y="343.0"/>
<node id="105" x="506.125" y="343.0"/>
<node id="106" x="498.312" y="343.0"/>
<node id="107" x="490.5" y="343.0"/>
<node id="108" x="482.687" y="343.0"/>
<node id="109" x="474.875" y="343.0"/>
<node id="110" x="467.062" y="343.0"/>
<node id="111" x="459.25" y="343.0"/>
<node id="112" x="451.437" y="343.0"/>
<node id="113" x="443.625" y="343.0"/>
<node id="114" x="435.812" y="343.0"/>
<node id="115" x="428.0" y="343.0"/>
<node id="116" x="420.187" y="343.0"/>
<node id="117" x="412.375" y="343.0"/>
<node id="118" x="404.562" y="343.0"/>
<node id="119" x="396.75" y="343.0"/>
<node id="120" x="388.937" y="343.0"/>
<node id="121" x="381.125" y="343.0"/>
<node id="122" x="373.312" y="343.0"/>
<node id="123" x="365.5" y="343.0"/>
<node id="124" x="357.687" y="343.0"/>
<node id="125" x="349.875" y="343.0"/>
<node id="126" x="342.062" y="343.0"/>
<node id="127" x="334.25" y="343.0"/>
<node id="128" x="326.437" y="343.0"/>
<node id="129" x="318.625" y="343.0"/>
<node id="130" x="310.812" y="343.0"/>
<node id="131" x="303.0" y="343.0"/>
<node id="132" x="295.187" y="343.0"/>
<node id="133" x="287.375" y="343.0"/>
<node id="134" x="279.562" y="343.0"/>
<node id="135" x="271.75" y="343.0"/>
<node id="136" x="263.937" y="343.0"/>
<node id="137" x="256.125" y="343.0"/>
<node id="138" x="248.312" y="343.0"/>
<node id="139" x="240.5" y="343.0"/>
<node id="140" x="232.687" y="343.0"/>
<node id="141" x="224.875" y="343.0"/>
<node id="142" x="217.062" y="343.0"/>
<node id="143" x="209.25" y="343.0"/>
<node id="144" x="201.437" y="343.0"/>
<node id="145" x="193.625" y="343.0"/>
<node id="146" x="185.812" y="343.0"/>
<node id="147" x="178.0" y="343.0"/>
<node id="148" x="170.187" y="343.0"/>
<node id="149" x="162.375" y="343.0"/>
<node id="150" x="154.562" y="343.0"/>
<node id="151" x="146.75" y="343.0"/>
<node id="152" x="138.937" y="343.0"/>
<node id="153" x="131.125" y="343.0"/>
<node id="154" x="123.312" y="343.0"/>
<node id="155" x="115.5" y="343.0"/>
<node id="156" x="108.635" y="342.73"/>
<node id="157" x="101.812" y="341.923"/>
<node id="158" x="95.0734" y="340.582"/>
<node id="159" x="88.4609" y="338.717"/>
<node id="160" x="82.015" y="336.339"/>
<node id="161" x="75.7757" y="333.463"/>
<node id="162" x="69.7812" y="330.106"/>
<node id="163" x="64.0686" y="326.289"/>
<node id="164" x="58.6732" y="322.035"/>
<node id="165" x="53.628" y="317.372"/>
<node id="166" x="48.9644" y="312.327"/>
<node id="167" x="44.7109" y="306.931"/>
<node id="168" x="40.8939" y="301.218"/>
<node id="169" x="37.5368" y="295.224"/>
<node id="170" x="34.6605" y="288.985"/>
<node id="171" x="32.2825" y="282.539"/>
<node id="172" x="30.4176" y="275.926"/>
<node id="173" x="29.0772" y="269.188"/>
<node id="174" x="28.2697" y="262.365"/>
<node id="175" x="28.0" y="255.5"/>
<node id="176" x="28.0" y="247.722"/>
<node id="177" x="28.0" y="239.944"/>
<node id="178" x="28.0" y="232.166"/>
<node id="179" x="28.0" y="224.389"/>
<node id="180" x="28.0" y="216.611"/>
<node id="181" x="28.0" y="208.833"/>
<node id="182" x="28.0" y="201.055"/>
<node id="183" x="28.0" y="193.278"/>
<node id="184" x="28.0" y="185.5"/>
<node id="185" x="28.0" y="177.722"/>
<node id="186" x="28.0" y="169.944"/>
<node id="187" x="28.0" y="162.167"/>
<node id="188" x="28.0" y="154.389"/>
<node id="189" x="28.0" y="146.611"/>
<node id="190" x="28.0" y="138.833"/>
<node id="191" x="28.0" y="131.055"/>
<node id="192" x="28.0" y="123.278"/>
<node id="193" x="28.0" y="115.5"/>
<node id="194" x="28.2697" y="108.635"/>
<node id="195" x="29.0773" y="101.812"/>
<node id="196" x="30.4177" y="95.0734"/>
<node id="197" x="32.2826" y="88.4609"/>
<node id="198" x="34.6606" y="82.0151"/>
<node id="199" x="37.537" y="75.7757"/>
<node id="200" x="40.8941" y="69.7813"/>
<node id="201" x="44.7111" y="64.0687"/>
<node id="202" x="48.9646" y="58.6732"/>
<node id="203" x="53.6283" y="53.6281"/>
<node id="204" x="58.6734" y="48.9644"/>
<node id="205" x="64.0689" y="44.7109"/>
<node id="206" x="69.7815" y="40.8939"/>
<node id="207" x="75.776" y="37.5369"/>
<node id="208" x="82.0154" y="34.6605"/>
<node id="209" x="88.4612" y="32.2825"/>
<node id="210" x="95.0737" y="30.4176"/>
<node id="211" x="101.812" y="29.0773"/>
<node id="212" x="108.635" y="28.2698"/>
<node id="213" x="115.5" y="28.0"/>
<node id="214" x="123.193" y="28.0"/>
<node id="215" x="130.885" y="28.0001"/>
<node id="216" x="138.577" y="28.0001"/>
<node id="217" x="146.269" y="28.0001"/>
<node id="218" x="153.962" y="28.0001"/>
<node id="219" x="161.654" y="28.0001"/>
<node id="220" x="169.346" y="28.0001"/>
<node id="221" x="177.039" y="28.0002"/>
<node id="222" x="184.731" y="28.0002"/>
<node id="223" x="192.423" y="28.0002"/>
<node id="224" x="200.116" y="28.0002"/>
<node id="225" x="207.808" y="28.0002"/>
<node id="226" x="215.5" y="28.0002"/>
<node id="227" x="223.395" y="28.0002"/>
<node id="228" x="231.29" y="28.0003"/>
<node id="229" x="239.184" y="28.0003"/>
<node id="230" x="247.079" y="28.0003"/>
<node id="231" x="254.974" y="28.0003"/>
<node id="232" x="262.869" y="28.0003"/>
<node id="233" x="270.763" y="28.0003"/>
<node id="234" x="278.658" y="28.0004"/>
<node id="235" x="286.553" y="28.0004"/>
<node id="236" x="294.448" y="28.0004"/>
<node id="237" x="302.342" y="28.0004"/>
<node id="238" x="310.237" y="28.0004"/>
<node id="239" x="318.132" y="28.0005"/>
<node id="240" x="326.026" y="28.0005"/>
<node id="241" x="333.921" y="28.0005"/>
<node id="242" x="341.816" y="28.0005"/>
</nodes>
