<?xml version="1.0" encoding="UTF-8"?>

<!-- generated on Fri Apr  7 14:40:40 2017 by SUMO netconvert Version 0.29.0
<?xml version="1.0" encoding="UTF-8"?>

<configuration xmlns:xsi="http://www.w3.org/2001/XMLSchema-instance" xsi:noNamespaceSchemaLocation="http://sumo.dlr.de/xsd/netconvertConfiguration.xsd">

    <input>
        <node-files value="Track01.nod.xml"/>
        <edge-files value="Track01.edg.xml"/>
    </input>

    <output>
        <output-file value="Track01.net.xml"/>
    </output>

</configuration>
-->

<net version="0.27" xmlns:xsi="http://www.w3.org/2001/XMLSchema-instance" xsi:noNamespaceSchemaLocation="http://sumo.dlr.de/xsd/net_file.xsd">

    <location netOffset="-28.00,-28.00" convBoundary="0.00,0.00,675.00,315.00" origBoundary="28.00,28.00,703.00,343.00" projParameter="!"/>

    <edge id=":0_0" function="internal">
        <lane id=":0_0_0" index="0" speed="13.90" length="0.10" width="25.00" shape="329.61,-12.55 329.60,-12.55"/>
    </edge>
    <edge id=":1_0" function="internal">
        <lane id=":1_0_0" index="0" speed="13.90" length="0.10" width="25.00" shape="337.50,-12.55 337.50,-12.55"/>
    </edge>
    <edge id=":10_0" function="internal">
        <lane id=":10_0_0" index="0" speed="13.90" length="0.10" width="25.00" shape="408.55,-12.55 408.55,-12.55"/>
    </edge>
    <edge id=":100_0" function="internal">
        <lane id=":100_0_0" index="0" speed="13.90" length="0.10" width="25.00" shape="517.19,327.55 517.19,327.55"/>
    </edge>
    <edge id=":101_0" function="internal">
        <lane id=":101_0_0" index="0" speed="13.90" length="0.10" width="25.00" shape="509.38,327.55 509.38,327.55"/>
    </edge>
    <edge id=":102_0" function="internal">
        <lane id=":102_0_0" index="0" speed="13.90" length="0.10" width="25.00" shape="501.56,327.55 501.56,327.55"/>
    </edge>
    <edge id=":103_0" function="internal">
        <lane id=":103_0_0" index="0" speed="13.90" length="0.10" width="25.00" shape="493.75,327.55 493.75,327.55"/>
    </edge>
    <edge id=":104_0" function="internal">
        <lane id=":104_0_0" index="0" speed="13.90" length="0.10" width="25.00" shape="485.94,327.55 485.94,327.55"/>
    </edge>
    <edge id=":105_0" function="internal">
        <lane id=":105_0_0" index="0" speed="13.90" length="0.10" width="25.00" shape="478.12,327.55 478.12,327.55"/>
    </edge>
    <edge id=":106_0" function="internal">
        <lane id=":106_0_0" index="0" speed="13.90" length="0.10" width="25.00" shape="470.31,327.55 470.31,327.55"/>
    </edge>
    <edge id=":107_0" function="internal">
        <lane id=":107_0_0" index="0" speed="13.90" length="0.10" width="25.00" shape="462.50,327.55 462.50,327.55"/>
    </edge>
    <edge id=":108_0" function="internal">
        <lane id=":108_0_0" index="0" speed="13.90" length="0.10" width="25.00" shape="454.69,327.55 454.69,327.55"/>
    </edge>
    <edge id=":109_0" function="internal">
        <lane id=":109_0_0" index="0" speed="13.90" length="0.10" width="25.00" shape="446.88,327.55 446.88,327.55"/>
    </edge>
    <edge id=":11_0" function="internal">
        <lane id=":11_0_0" index="0" speed="13.90" length="0.10" width="25.00" shape="416.45,-12.55 416.45,-12.55"/>
    </edge>
    <edge id=":110_0" function="internal">
        <lane id=":110_0_0" index="0" speed="13.90" length="0.10" width="25.00" shape="439.06,327.55 439.06,327.55"/>
    </edge>
    <edge id=":111_0" function="internal">
        <lane id=":111_0_0" index="0" speed="13.90" length="0.10" width="25.00" shape="431.25,327.55 431.25,327.55"/>
    </edge>
    <edge id=":112_0" function="internal">
        <lane id=":112_0_0" index="0" speed="13.90" length="0.10" width="25.00" shape="423.44,327.55 423.44,327.55"/>
    </edge>
    <edge id=":113_0" function="internal">
        <lane id=":113_0_0" index="0" speed="13.90" length="0.10" width="25.00" shape="415.62,327.55 415.62,327.55"/>
    </edge>
    <edge id=":114_0" function="internal">
        <lane id=":114_0_0" index="0" speed="13.90" length="0.10" width="25.00" shape="407.81,327.55 407.81,327.55"/>
    </edge>
    <edge id=":115_0" function="internal">
        <lane id=":115_0_0" index="0" speed="13.90" length="0.10" width="25.00" shape="400.00,327.55 400.00,327.55"/>
    </edge>
    <edge id=":116_0" function="internal">
        <lane id=":116_0_0" index="0" speed="13.90" length="0.10" width="25.00" shape="392.19,327.55 392.19,327.55"/>
    </edge>
    <edge id=":117_0" function="internal">
        <lane id=":117_0_0" index="0" speed="13.90" length="0.10" width="25.00" shape="384.38,327.55 384.38,327.55"/>
    </edge>
    <edge id=":118_0" function="internal">
        <lane id=":118_0_0" index="0" speed="13.90" length="0.10" width="25.00" shape="376.56,327.55 376.56,327.55"/>
    </edge>
    <edge id=":119_0" function="internal">
        <lane id=":119_0_0" index="0" speed="13.90" length="0.10" width="25.00" shape="368.75,327.55 368.75,327.55"/>
    </edge>
    <edge id=":12_0" function="internal">
        <lane id=":12_0_0" index="0" speed="13.90" length="0.10" width="25.00" shape="424.34,-12.55 424.34,-12.55"/>
    </edge>
    <edge id=":120_0" function="internal">
        <lane id=":120_0_0" index="0" speed="13.90" length="0.10" width="25.00" shape="360.94,327.55 360.94,327.55"/>
    </edge>
    <edge id=":121_0" function="internal">
        <lane id=":121_0_0" index="0" speed="13.90" length="0.10" width="25.00" shape="353.12,327.55 353.12,327.55"/>
    </edge>
    <edge id=":122_0" function="internal">
        <lane id=":122_0_0" index="0" speed="13.90" length="0.10" width="25.00" shape="345.31,327.55 345.31,327.55"/>
    </edge>
    <edge id=":123_0" function="internal">
        <lane id=":123_0_0" index="0" speed="13.90" length="0.10" width="25.00" shape="337.50,327.55 337.50,327.55"/>
    </edge>
    <edge id=":124_0" function="internal">
        <lane id=":124_0_0" index="0" speed="13.90" length="0.10" width="25.00" shape="329.69,327.55 329.69,327.55"/>
    </edge>
    <edge id=":125_0" function="internal">
        <lane id=":125_0_0" index="0" speed="13.90" length="0.10" width="25.00" shape="321.88,327.55 321.88,327.55"/>
    </edge>
    <edge id=":126_0" function="internal">
        <lane id=":126_0_0" index="0" speed="13.90" length="0.10" width="25.00" shape="314.06,327.55 314.06,327.55"/>
    </edge>
    <edge id=":127_0" function="internal">
        <lane id=":127_0_0" index="0" speed="13.90" length="0.10" width="25.00" shape="306.25,327.55 306.25,327.55"/>
    </edge>
    <edge id=":128_0" function="internal">
        <lane id=":128_0_0" index="0" speed="13.90" length="0.10" width="25.00" shape="298.44,327.55 298.44,327.55"/>
    </edge>
    <edge id=":129_0" function="internal">
        <lane id=":129_0_0" index="0" speed="13.90" length="0.10" width="25.00" shape="290.62,327.55 290.62,327.55"/>
    </edge>
    <edge id=":13_0" function="internal">
        <lane id=":13_0_0" index="0" speed="13.90" length="0.10" width="25.00" shape="432.24,-12.55 432.24,-12.55"/>
    </edge>
    <edge id=":130_0" function="internal">
        <lane id=":130_0_0" index="0" speed="13.90" length="0.10" width="25.00" shape="282.81,327.55 282.81,327.55"/>
    </edge>
    <edge id=":131_0" function="internal">
        <lane id=":131_0_0" index="0" speed="13.90" length="0.10" width="25.00" shape="275.00,327.55 275.00,327.55"/>
    </edge>
    <edge id=":132_0" function="internal">
        <lane id=":132_0_0" index="0" speed="13.90" length="0.10" width="25.00" shape="267.19,327.55 267.19,327.55"/>
    </edge>
    <edge id=":133_0" function="internal">
        <lane id=":133_0_0" index="0" speed="13.90" length="0.10" width="25.00" shape="259.38,327.55 259.38,327.55"/>
    </edge>
    <edge id=":134_0" function="internal">
        <lane id=":134_0_0" index="0" speed="13.90" length="0.10" width="25.00" shape="251.56,327.55 251.56,327.55"/>
    </edge>
    <edge id=":135_0" function="internal">
        <lane id=":135_0_0" index="0" speed="13.90" length="0.10" width="25.00" shape="243.75,327.55 243.75,327.55"/>
    </edge>
    <edge id=":136_0" function="internal">
        <lane id=":136_0_0" index="0" speed="13.90" length="0.10" width="25.00" shape="235.94,327.55 235.94,327.55"/>
    </edge>
    <edge id=":137_0" function="internal">
        <lane id=":137_0_0" index="0" speed="13.90" length="0.10" width="25.00" shape="228.12,327.55 228.12,327.55"/>
    </edge>
    <edge id=":138_0" function="internal">
        <lane id=":138_0_0" index="0" speed="13.90" length="0.10" width="25.00" shape="220.31,327.55 220.31,327.55"/>
    </edge>
    <edge id=":139_0" function="internal">
        <lane id=":139_0_0" index="0" speed="13.90" length="0.10" width="25.00" shape="212.50,327.55 212.50,327.55"/>
    </edge>
    <edge id=":14_0" function="internal">
        <lane id=":14_0_0" index="0" speed="13.90" length="0.10" width="25.00" shape="440.13,-12.55 440.13,-12.55"/>
    </edge>
    <edge id=":140_0" function="internal">
        <lane id=":140_0_0" index="0" speed="13.90" length="0.10" width="25.00" shape="204.69,327.55 204.69,327.55"/>
    </edge>
    <edge id=":141_0" function="internal">
        <lane id=":141_0_0" index="0" speed="13.90" length="0.10" width="25.00" shape="196.88,327.55 196.88,327.55"/>
    </edge>
    <edge id=":142_0" function="internal">
        <lane id=":142_0_0" index="0" speed="13.90" length="0.10" width="25.00" shape="189.06,327.55 189.06,327.55"/>
    </edge>
    <edge id=":143_0" function="internal">
        <lane id=":143_0_0" index="0" speed="13.90" length="0.10" width="25.00" shape="181.25,327.55 181.25,327.55"/>
    </edge>
    <edge id=":144_0" function="internal">
        <lane id=":144_0_0" index="0" speed="13.90" length="0.10" width="25.00" shape="173.44,327.55 173.44,327.55"/>
    </edge>
    <edge id=":145_0" function="internal">
        <lane id=":145_0_0" index="0" speed="13.90" length="0.10" width="25.00" shape="165.62,327.55 165.62,327.55"/>
    </edge>
    <edge id=":146_0" function="internal">
        <lane id=":146_0_0" index="0" speed="13.90" length="0.10" width="25.00" shape="157.81,327.55 157.81,327.55"/>
    </edge>
    <edge id=":147_0" function="internal">
        <lane id=":147_0_0" index="0" speed="13.90" length="0.10" width="25.00" shape="150.00,327.55 150.00,327.55"/>
    </edge>
    <edge id=":148_0" function="internal">
        <lane id=":148_0_0" index="0" speed="13.90" length="0.10" width="25.00" shape="142.19,327.55 142.19,327.55"/>
    </edge>
    <edge id=":149_0" function="internal">
        <lane id=":149_0_0" index="0" speed="13.90" length="0.10" width="25.00" shape="134.38,327.55 134.38,327.55"/>
    </edge>
    <edge id=":15_0" function="internal">
        <lane id=":15_0_0" index="0" speed="13.90" length="0.10" width="25.00" shape="448.03,-12.55 448.03,-12.55"/>
    </edge>
    <edge id=":150_0" function="internal">
        <lane id=":150_0_0" index="0" speed="13.90" length="0.10" width="25.00" shape="126.56,327.55 126.56,327.55"/>
    </edge>
    <edge id=":151_0" function="internal">
        <lane id=":151_0_0" index="0" speed="13.90" length="0.10" width="25.00" shape="118.75,327.55 118.75,327.55"/>
    </edge>
    <edge id=":152_0" function="internal">
        <lane id=":152_0_0" index="0" speed="13.90" length="0.10" width="25.00" shape="110.94,327.55 110.94,327.55"/>
    </edge>
    <edge id=":153_0" function="internal">
        <lane id=":153_0_0" index="0" speed="13.90" length="0.10" width="25.00" shape="103.12,327.55 103.12,327.55"/>
    </edge>
    <edge id=":154_0" function="internal">
        <lane id=":154_0_0" index="0" speed="13.90" length="0.10" width="25.00" shape="95.31,327.55 95.31,327.55"/>
    </edge>
    <edge id=":155_0" function="internal">
        <lane id=":155_0_0" index="0" speed="13.90" length="0.22" width="25.00" shape="87.36,327.55 87.14,327.55"/>
    </edge>
    <edge id=":156_0" function="internal">
        <lane id=":156_0_0" index="0" speed="13.90" length="0.98" width="25.00" shape="80.14,327.27 79.16,327.19"/>
    </edge>
    <edge id=":157_0" function="internal">
        <lane id=":157_0_0" index="0" speed="13.90" length="0.98" width="25.00" shape="72.34,326.39 71.36,326.23"/>
    </edge>
    <edge id=":158_0" function="internal">
        <lane id=":158_0_0" index="0" speed="13.90" length="0.98" width="25.00" shape="64.62,324.89 63.67,324.66"/>
    </edge>
    <edge id=":159_0" function="internal">
        <lane id=":159_0_0" index="0" speed="13.90" length="0.98" width="25.00" shape="57.05,322.80 56.12,322.49"/>
    </edge>
    <edge id=":16_0" function="internal">
        <lane id=":16_0_0" index="0" speed="13.90" length="0.10" width="25.00" shape="455.92,-12.55 455.92,-12.55"/>
    </edge>
    <edge id=":160_0" function="internal">
        <lane id=":160_0_0" index="0" speed="13.90" length="0.98" width="25.00" shape="49.67,320.11 48.76,319.74"/>
    </edge>
    <edge id=":161_0" function="internal">
        <lane id=":161_0_0" index="0" speed="13.90" length="0.98" width="25.00" shape="42.52,316.86 41.65,316.41"/>
    </edge>
    <edge id=":162_0" function="internal">
        <lane id=":162_0_0" index="0" speed="13.90" length="0.98" width="25.00" shape="35.65,313.05 34.81,312.54"/>
    </edge>
    <edge id=":163_0" function="internal">
        <lane id=":163_0_0" index="0" speed="13.90" length="0.98" width="25.00" shape="29.09,308.72 28.30,308.15"/>
    </edge>
    <edge id=":164_0" function="internal">
        <lane id=":164_0_0" index="0" speed="13.90" length="0.98" width="25.00" shape="22.90,303.89 22.16,303.25"/>
    </edge>
    <edge id=":165_0" function="internal">
        <lane id=":165_0_0" index="0" speed="13.90" length="0.98" width="25.00" shape="17.11,298.59 16.41,297.89"/>
    </edge>
    <edge id=":166_0" function="internal">
        <lane id=":166_0_0" index="0" speed="13.90" length="0.98" width="25.00" shape="11.75,292.84 11.11,292.10"/>
    </edge>
    <edge id=":167_0" function="internal">
        <lane id=":167_0_0" index="0" speed="13.90" length="0.98" width="25.00" shape="6.85,286.70 6.28,285.90"/>
    </edge>
    <edge id=":168_0" function="internal">
        <lane id=":168_0_0" index="0" speed="13.90" length="0.98" width="25.00" shape="2.46,280.19 1.95,279.35"/>
    </edge>
    <edge id=":169_0" function="internal">
        <lane id=":169_0_0" index="0" speed="13.90" length="0.98" width="25.00" shape="-1.41,273.35 -1.86,272.48"/>
    </edge>
    <edge id=":17_0" function="internal">
        <lane id=":17_0_0" index="0" speed="13.90" length="0.10" width="25.00" shape="463.82,-12.55 463.82,-12.55"/>
    </edge>
    <edge id=":170_0" function="internal">
        <lane id=":170_0_0" index="0" speed="13.90" length="0.98" width="25.00" shape="-4.74,266.24 -5.11,265.33"/>
    </edge>
    <edge id=":171_0" function="internal">
        <lane id=":171_0_0" index="0" speed="13.90" length="0.98" width="25.00" shape="-7.49,258.88 -7.80,257.95"/>
    </edge>
    <edge id=":172_0" function="internal">
        <lane id=":172_0_0" index="0" speed="13.90" length="0.98" width="25.00" shape="-9.66,251.33 -9.89,250.38"/>
    </edge>
    <edge id=":173_0" function="internal">
        <lane id=":173_0_0" index="0" speed="13.90" length="0.98" width="25.00" shape="-11.23,243.63 -11.39,242.66"/>
    </edge>
    <edge id=":174_0" function="internal">
        <lane id=":174_0_0" index="0" speed="13.90" length="0.98" width="25.00" shape="-12.19,235.84 -12.27,234.86"/>
    </edge>
    <edge id=":175_0" function="internal">
        <lane id=":175_0_0" index="0" speed="13.90" length="0.22" width="25.00" shape="-12.55,227.86 -12.55,227.63"/>
    </edge>
    <edge id=":176_0" function="internal">
        <lane id=":176_0_0" index="0" speed="13.90" length="0.10" width="25.00" shape="-12.55,219.72 -12.55,219.72"/>
    </edge>
    <edge id=":177_0" function="internal">
        <lane id=":177_0_0" index="0" speed="13.90" length="0.10" width="25.00" shape="-12.55,211.94 -12.55,211.94"/>
    </edge>
    <edge id=":178_0" function="internal">
        <lane id=":178_0_0" index="0" speed="13.90" length="0.10" width="25.00" shape="-12.55,204.17 -12.55,204.17"/>
    </edge>
    <edge id=":179_0" function="internal">
        <lane id=":179_0_0" index="0" speed="13.90" length="0.10" width="25.00" shape="-12.55,196.39 -12.55,196.39"/>
    </edge>
    <edge id=":18_0" function="internal">
        <lane id=":18_0_0" index="0" speed="13.90" length="0.10" width="25.00" shape="471.71,-12.55 471.71,-12.55"/>
    </edge>
    <edge id=":180_0" function="internal">
        <lane id=":180_0_0" index="0" speed="13.90" length="0.10" width="25.00" shape="-12.55,188.61 -12.55,188.61"/>
    </edge>
    <edge id=":181_0" function="internal">
        <lane id=":181_0_0" index="0" speed="13.90" length="0.10" width="25.00" shape="-12.55,180.83 -12.55,180.83"/>
    </edge>
    <edge id=":182_0" function="internal">
        <lane id=":182_0_0" index="0" speed="13.90" length="0.10" width="25.00" shape="-12.55,173.06 -12.55,173.06"/>
    </edge>
    <edge id=":183_0" function="internal">
        <lane id=":183_0_0" index="0" speed="13.90" length="0.10" width="25.00" shape="-12.55,165.28 -12.55,165.28"/>
    </edge>
    <edge id=":184_0" function="internal">
        <lane id=":184_0_0" index="0" speed="13.90" length="0.10" width="25.00" shape="-12.55,157.50 -12.55,157.50"/>
    </edge>
    <edge id=":185_0" function="internal">
        <lane id=":185_0_0" index="0" speed="13.90" length="0.10" width="25.00" shape="-12.55,149.72 -12.55,149.72"/>
    </edge>
    <edge id=":186_0" function="internal">
        <lane id=":186_0_0" index="0" speed="13.90" length="0.10" width="25.00" shape="-12.55,141.94 -12.55,141.94"/>
    </edge>
    <edge id=":187_0" function="internal">
        <lane id=":187_0_0" index="0" speed="13.90" length="0.10" width="25.00" shape="-12.55,134.17 -12.55,134.17"/>
    </edge>
    <edge id=":188_0" function="internal">
        <lane id=":188_0_0" index="0" speed="13.90" length="0.10" width="25.00" shape="-12.55,126.39 -12.55,126.39"/>
    </edge>
    <edge id=":189_0" function="internal">
        <lane id=":189_0_0" index="0" speed="13.90" length="0.10" width="25.00" shape="-12.55,118.61 -12.55,118.61"/>
    </edge>
    <edge id=":19_0" function="internal">
        <lane id=":19_0_0" index="0" speed="13.90" length="0.10" width="25.00" shape="479.61,-12.55 479.61,-12.55"/>
    </edge>
    <edge id=":190_0" function="internal">
        <lane id=":190_0_0" index="0" speed="13.90" length="0.10" width="25.00" shape="-12.55,110.83 -12.55,110.83"/>
    </edge>
    <edge id=":191_0" function="internal">
        <lane id=":191_0_0" index="0" speed="13.90" length="0.10" width="25.00" shape="-12.55,103.06 -12.55,103.06"/>
    </edge>
    <edge id=":192_0" function="internal">
        <lane id=":192_0_0" index="0" speed="13.90" length="0.10" width="25.00" shape="-12.55,95.28 -12.55,95.28"/>
    </edge>
    <edge id=":193_0" function="internal">
        <lane id=":193_0_0" index="0" speed="13.90" length="0.22" width="25.00" shape="-12.55,87.37 -12.55,87.14"/>
    </edge>
    <edge id=":194_0" function="internal">
        <lane id=":194_0_0" index="0" speed="13.90" length="0.98" width="25.00" shape="-12.27,80.14 -12.19,79.16"/>
    </edge>
    <edge id=":195_0" function="internal">
        <lane id=":195_0_0" index="0" speed="13.90" length="0.98" width="25.00" shape="-11.39,72.33 -11.23,71.37"/>
    </edge>
    <edge id=":196_0" function="internal">
        <lane id=":196_0_0" index="0" speed="13.90" length="0.98" width="25.00" shape="-9.89,64.62 -9.66,63.67"/>
    </edge>
    <edge id=":197_0" function="internal">
        <lane id=":197_0_0" index="0" speed="13.90" length="0.98" width="25.00" shape="-7.80,57.05 -7.49,56.12"/>
    </edge>
    <edge id=":198_0" function="internal">
        <lane id=":198_0_0" index="0" speed="13.90" length="0.98" width="25.00" shape="-5.11,49.67 -4.74,48.76"/>
    </edge>
    <edge id=":199_0" function="internal">
        <lane id=":199_0_0" index="0" speed="13.90" length="0.98" width="25.00" shape="-1.86,42.52 -1.41,41.65"/>
    </edge>
    <edge id=":2_0" function="internal">
        <lane id=":2_0_0" index="0" speed="13.90" length="0.10" width="25.00" shape="345.39,-12.55 345.39,-12.55"/>
    </edge>
    <edge id=":20_0" function="internal">
        <lane id=":20_0_0" index="0" speed="13.90" length="0.10" width="25.00" shape="487.50,-12.55 487.50,-12.55"/>
    </edge>
    <edge id=":200_0" function="internal">
        <lane id=":200_0_0" index="0" speed="13.90" length="0.98" width="25.00" shape="1.95,35.65 2.46,34.81"/>
    </edge>
    <edge id=":201_0" function="internal">
        <lane id=":201_0_0" index="0" speed="13.90" length="0.98" width="25.00" shape="6.28,29.09 6.85,28.30"/>
    </edge>
    <edge id=":202_0" function="internal">
        <lane id=":202_0_0" index="0" speed="13.90" length="0.98" width="25.00" shape="11.11,22.90 11.75,22.16"/>
    </edge>
    <edge id=":203_0" function="internal">
        <lane id=":203_0_0" index="0" speed="13.90" length="0.98" width="25.00" shape="16.41,17.11 17.11,16.41"/>
    </edge>
    <edge id=":204_0" function="internal">
        <lane id=":204_0_0" index="0" speed="13.90" length="0.98" width="25.00" shape="22.16,11.75 22.90,11.11"/>
    </edge>
    <edge id=":205_0" function="internal">
        <lane id=":205_0_0" index="0" speed="13.90" length="0.98" width="25.00" shape="28.30,6.85 29.09,6.28"/>
    </edge>
    <edge id=":206_0" function="internal">
        <lane id=":206_0_0" index="0" speed="13.90" length="0.98" width="25.00" shape="34.81,2.46 35.65,1.94"/>
    </edge>
    <edge id=":207_0" function="internal">
        <lane id=":207_0_0" index="0" speed="13.90" length="0.98" width="25.00" shape="41.65,-1.41 42.52,-1.86"/>
    </edge>
    <edge id=":208_0" function="internal">
        <lane id=":208_0_0" index="0" speed="13.90" length="0.98" width="25.00" shape="48.76,-4.74 49.67,-5.11"/>
    </edge>
    <edge id=":209_0" function="internal">
        <lane id=":209_0_0" index="0" speed="13.90" length="0.98" width="25.00" shape="56.12,-7.49 57.05,-7.80"/>
    </edge>
    <edge id=":21_0" function="internal">
        <lane id=":21_0_0" index="0" speed="13.90" length="0.10" width="25.00" shape="495.19,-12.55 495.19,-12.55"/>
    </edge>
    <edge id=":210_0" function="internal">
        <lane id=":210_0_0" index="0" speed="13.90" length="0.98" width="25.00" shape="63.67,-9.66 64.62,-9.89"/>
    </edge>
    <edge id=":211_0" function="internal">
        <lane id=":211_0_0" index="0" speed="13.90" length="0.98" width="25.00" shape="71.37,-11.23 72.34,-11.39"/>
    </edge>
    <edge id=":212_0" function="internal">
        <lane id=":212_0_0" index="0" speed="13.90" length="0.98" width="25.00" shape="79.16,-12.19 80.14,-12.27"/>
    </edge>
    <edge id=":213_0" function="internal">
        <lane id=":213_0_0" index="0" speed="13.90" length="0.22" width="25.00" shape="87.14,-12.55 87.37,-12.55"/>
    </edge>
    <edge id=":214_0" function="internal">
        <lane id=":214_0_0" index="0" speed="13.90" length="0.10" width="25.00" shape="95.19,-12.55 95.19,-12.55"/>
    </edge>
    <edge id=":215_0" function="internal">
        <lane id=":215_0_0" index="0" speed="13.90" length="0.10" width="25.00" shape="102.89,-12.55 102.88,-12.55"/>
    </edge>
    <edge id=":216_0" function="internal">
        <lane id=":216_0_0" index="0" speed="13.90" length="0.10" width="25.00" shape="110.58,-12.55 110.58,-12.55"/>
    </edge>
    <edge id=":217_0" function="internal">
        <lane id=":217_0_0" index="0" speed="13.90" length="0.10" width="25.00" shape="118.27,-12.55 118.27,-12.55"/>
    </edge>
    <edge id=":218_0" function="internal">
        <lane id=":218_0_0" index="0" speed="13.90" length="0.10" width="25.00" shape="125.96,-12.55 125.96,-12.55"/>
    </edge>
    <edge id=":219_0" function="internal">
        <lane id=":219_0_0" index="0" speed="13.90" length="0.10" width="25.00" shape="133.65,-12.55 133.65,-12.55"/>
    </edge>
    <edge id=":22_0" function="internal">
        <lane id=":22_0_0" index="0" speed="13.90" length="0.10" width="25.00" shape="502.88,-12.55 502.88,-12.55"/>
    </edge>
    <edge id=":220_0" function="internal">
        <lane id=":220_0_0" index="0" speed="13.90" length="0.10" width="25.00" shape="141.35,-12.55 141.35,-12.55"/>
    </edge>
    <edge id=":221_0" function="internal">
        <lane id=":221_0_0" index="0" speed="13.90" length="0.10" width="25.00" shape="149.04,-12.55 149.04,-12.55"/>
    </edge>
    <edge id=":222_0" function="internal">
        <lane id=":222_0_0" index="0" speed="13.90" length="0.10" width="25.00" shape="156.73,-12.55 156.73,-12.55"/>
    </edge>
    <edge id=":223_0" function="internal">
        <lane id=":223_0_0" index="0" speed="13.90" length="0.10" width="25.00" shape="164.42,-12.55 164.42,-12.55"/>
    </edge>
    <edge id=":224_0" function="internal">
        <lane id=":224_0_0" index="0" speed="13.90" length="0.10" width="25.00" shape="172.12,-12.55 172.12,-12.55"/>
    </edge>
    <edge id=":225_0" function="internal">
        <lane id=":225_0_0" index="0" speed="13.90" length="0.10" width="25.00" shape="179.81,-12.55 179.81,-12.55"/>
    </edge>
    <edge id=":226_0" function="internal">
        <lane id=":226_0_0" index="0" speed="13.90" length="0.10" width="25.00" shape="187.50,-12.55 187.50,-12.55"/>
    </edge>
    <edge id=":227_0" function="internal">
        <lane id=":227_0_0" index="0" speed="13.90" length="0.10" width="25.00" shape="195.40,-12.55 195.40,-12.55"/>
    </edge>
    <edge id=":228_0" function="internal">
        <lane id=":228_0_0" index="0" speed="13.90" length="0.10" width="25.00" shape="203.29,-12.55 203.29,-12.55"/>
    </edge>
    <edge id=":229_0" function="internal">
        <lane id=":229_0_0" index="0" speed="13.90" length="0.10" width="25.00" shape="211.18,-12.55 211.18,-12.55"/>
    </edge>
    <edge id=":23_0" function="internal">
        <lane id=":23_0_0" index="0" speed="13.90" length="0.10" width="25.00" shape="510.58,-12.55 510.58,-12.55"/>
    </edge>
    <edge id=":230_0" function="internal">
        <lane id=":230_0_0" index="0" speed="13.90" length="0.10" width="25.00" shape="219.08,-12.55 219.08,-12.55"/>
    </edge>
    <edge id=":231_0" function="internal">
        <lane id=":231_0_0" index="0" speed="13.90" length="0.10" width="25.00" shape="226.97,-12.55 226.97,-12.55"/>
    </edge>
    <edge id=":232_0" function="internal">
        <lane id=":232_0_0" index="0" speed="13.90" length="0.10" width="25.00" shape="234.87,-12.55 234.87,-12.55"/>
    </edge>
    <edge id=":233_0" function="internal">
        <lane id=":233_0_0" index="0" speed="13.90" length="0.10" width="25.00" shape="242.76,-12.55 242.76,-12.55"/>
    </edge>
    <edge id=":234_0" function="internal">
        <lane id=":234_0_0" index="0" speed="13.90" length="0.10" width="25.00" shape="250.66,-12.55 250.66,-12.55"/>
    </edge>
    <edge id=":235_0" function="internal">
        <lane id=":235_0_0" index="0" speed="13.90" length="0.10" width="25.00" shape="258.55,-12.55 258.55,-12.55"/>
    </edge>
    <edge id=":236_0" function="internal">
        <lane id=":236_0_0" index="0" speed="13.90" length="0.10" width="25.00" shape="266.45,-12.55 266.45,-12.55"/>
    </edge>
    <edge id=":237_0" function="internal">
        <lane id=":237_0_0" index="0" speed="13.90" length="0.10" width="25.00" shape="274.34,-12.55 274.34,-12.55"/>
    </edge>
    <edge id=":238_0" function="internal">
        <lane id=":238_0_0" index="0" speed="13.90" length="0.10" width="25.00" shape="282.24,-12.55 282.24,-12.55"/>
    </edge>
    <edge id=":239_0" function="internal">
        <lane id=":239_0_0" index="0" speed="13.90" length="0.10" width="25.00" shape="290.13,-12.55 290.13,-12.55"/>
    </edge>
    <edge id=":24_0" function="internal">
        <lane id=":24_0_0" index="0" speed="13.90" length="0.10" width="25.00" shape="518.27,-12.55 518.27,-12.55"/>
    </edge>
    <edge id=":240_0" function="internal">
        <lane id=":240_0_0" index="0" speed="13.90" length="0.10" width="25.00" shape="298.03,-12.55 298.03,-12.55"/>
    </edge>
    <edge id=":241_0" function="internal">
        <lane id=":241_0_0" index="0" speed="13.90" length="0.10" width="25.00" shape="305.92,-12.55 305.92,-12.55"/>
    </edge>
    <edge id=":242_0" function="internal">
        <lane id=":242_0_0" index="0" speed="13.90" length="0.10" width="25.00" shape="313.82,-12.55 313.82,-12.55"/>
    </edge>
    <edge id=":25_0" function="internal">
        <lane id=":25_0_0" index="0" speed="13.90" length="0.10" width="25.00" shape="525.96,-12.55 525.96,-12.55"/>
    </edge>
    <edge id=":26_0" function="internal">
        <lane id=":26_0_0" index="0" speed="13.90" length="0.10" width="25.00" shape="533.65,-12.55 533.65,-12.55"/>
    </edge>
    <edge id=":27_0" function="internal">
        <lane id=":27_0_0" index="0" speed="13.90" length="0.10" width="25.00" shape="541.35,-12.55 541.35,-12.55"/>
    </edge>
    <edge id=":28_0" function="internal">
        <lane id=":28_0_0" index="0" speed="13.90" length="0.10" width="25.00" shape="549.04,-12.55 549.04,-12.55"/>
    </edge>
    <edge id=":29_0" function="internal">
        <lane id=":29_0_0" index="0" speed="13.90" length="0.10" width="25.00" shape="556.73,-12.55 556.73,-12.55"/>
    </edge>
    <edge id=":3_0" function="internal">
        <lane id=":3_0_0" index="0" speed="13.90" length="0.10" width="25.00" shape="353.29,-12.55 353.29,-12.55"/>
    </edge>
    <edge id=":30_0" function="internal">
        <lane id=":30_0_0" index="0" speed="13.90" length="0.10" width="25.00" shape="564.42,-12.55 564.42,-12.55"/>
    </edge>
    <edge id=":31_0" function="internal">
        <lane id=":31_0_0" index="0" speed="13.90" length="0.10" width="25.00" shape="572.12,-12.55 572.12,-12.55"/>
    </edge>
    <edge id=":32_0" function="internal">