<?xml version="1.0" encoding="UTF-8"?>
<edges xmlns:xsi="http://www.w3.org/2001/XMLSchema-instance" xsi:noNamespaceSchemaLocation="http://sumo.sf.net/xsd/edges_file.xsd">
<edge from="0" id="0to1" to="1" length="7.89500001583" width="25"/>
<edge from="1" id="1to2" to="2" length="7.895" width="25"/>
<edge from="2" id="2to3" to="3" length="7.894" width="25"/>
<edge from="3" id="3to4" to="4" length="7.895" width="25"/>
<edge from="4" id="4to5" to="5" length="7.895" width="25"/>
<edge from="5" id="5to6" to="6" length="7.895" width="25"/>
<edge from="6" id="6to7" to="7" length="7.894" width="25"/>
<edge from="7" id="7to8" to="8" length="7.895" width="25"/>
<edge from="8" id="8to9" to="9" length="7.895" width="25"/>
<edge from="9" id="9to10" to="10" length="7.895" width="25"/>
<edge from="10" id="10to11" to="11" length="7.894" width="25"/>
<edge from="11" id="11to12" to="12" length="7.895" width="25"/>
<edge from="12" id="12to13" to="13" length="7.895" width="25"/>
<edge from="13" id="13to14" to="14" length="7.895" width="25"/>
<edge from="14" id="14to15" to="15" length="7.894" width="25"/>
<edge from="15" id="15to16" to="16" length="7.895" width="25"/>
<edge from="16" id="16to17" to="17" length="7.895" width="25"/>
<edge from="17" id="17to18" to="18" length="7.895" width="25"/>
<edge from="18" id="18to19" to="19" length="7.894" width="25"/>
<edge from="19" id="19to20" to="20" length="7.895" width="25"/>
<edge from="20" id="20to21" to="21" length="7.692" width="25"/>
<edge from="21" id="21to22" to="22" length="7.693" width="25"/>
<edge from="22" id="22to23" to="23" length="7.692" width="25"/>
<edge from="23" id="23to24" to="24" length="7.692" width="25"/>
<edge from="24" id="24to25" to="25" length="7.692" width="25"/>
<edge from="25" id="25to26" to="26" length="7.693" width="25"/>
<edge from="26" id="26to27" to="27" length="7.692" width="25"/>
<edge from="27" id="27to28" to="28" length="7.692" width="25"/>
<edge from="28" id="28to29" to="29" length="7.693" width="25"/>
<edge from="29" id="29to30" to="30" length="7.692" width="25"/>
<edge from="30" id="30to31" to="31" length="7.692" width="25"/>
<edge from="31" id="31to32" to="32" length="7.693" width="25"/>
<edge from="32" id="32to33" to="33" length="7.692" width="25"/>
<edge from="33" id="33to34" to="34" length="6.87029570615" width="25"/>
<edge from="34" id="34to35" to="35" length="6.87062928413" width="25"/>
<edge from="35" id="35to36" to="36" length="6.87001077801" width="25"/>
<edge from="36" id="36to37" to="37" length="6.8709529179" width="25"/>
<edge from="37" id="37to38" to="38" length="6.87061310292" width="25"/>
<edge from="38" id="38to39" to="39" length="6.87013813253" width="25"/>
<edge from="39" id="39to40" to="40" length="6.87096393601" width="25"/>
<edge from="40" id="40to41" to="41" length="6.86996601156" width="25"/>
<edge from="41" id="41to42" to="42" length="6.87088627835" width="25"/>
<edge from="42" id="42to43" to="43" length="6.87038009793" width="25"/>
<edge from="43" id="43to44" to="44" length="6.87065717454" width="25"/>
<edge from="44" id="44to45" to="45" length="6.87018407686" width="25"/>
<edge from="45" id="45to46" to="46" length="6.87046488675" width="25"/>
<edge from="46" id="46to47" to="47" length="6.87039157254" width="25"/>
<edge from="47" id="47to48" to="48" length="6.87033393366" width="25"/>
<edge from="48" id="48to49" to="49" length="6.87046007484" width="25"/>
<edge from="49" id="49to50" to="50" length="6.87056793577" width="25"/>
<edge from="50" id="50to51" to="51" length="6.87053968477" width="25"/>
<edge from="51" id="51to52" to="52" length="6.87055878368" width="25"/>
<edge from="52" id="52to53" to="53" length="6.87030748948" width="25"/>
<edge from="53" id="53to54" to="54" length="7.778" width="25"/>
<edge from="54" id="54to55" to="55" length="7.778" width="25"/>
<edge from="55" id="55to56" to="56" length="7.777" width="25"/>
<edge from="56" id="56to57" to="57" length="7.778" width="25"/>
<edge from="57" id="57to58" to="58" length="7.778" width="25"/>
<edge from="58" id="58to59" to="59" length="7.778" width="25"/>
<edge from="59" id="59to60" to="60" length="7.777" width="25"/>
<edge from="60" id="60to61" to="61" length="7.778" width="25"/>
<edge from="61" id="61to62" to="62" length="7.778" width="25"/>
<edge from="62" id="62to63" to="63" length="7.778" width="25"/>
<edge from="63" id="63to64" to="64" length="7.778" width="25"/>
<edge from="64" id="64to65" to="65" length="7.777" width="25"/>
<edge from="65" id="65to66" to="66" length="7.778" width="25"/>
<edge from="66" id="66to67" to="67" length="7.778" width="25"/>
<edge from="67" id="67to68" to="68" length="7.778" width="25"/>
<edge from="68" id="68to69" to="69" length="7.777" width="25"/>
<edge from="69" id="69to70" to="70" length="7.778" width="25"/>
<edge from="70" id="70to71" to="71" length="7.778" width="25"/>
<edge from="71" id="71to72" to="72" length="6.87030748948" width="25"/>
<edge from="72" id="72to73" to="73" length="6.87055878368" width="25"/>
<edge from="73" id="73to74" to="74" length="6.87014737833" width="25"/>
<edge from="74" id="74to75" to="75" length="6.8709529179" width="25"/>
<edge from="75" id="75to76" to="76" length="6.87064771328" width="25"/>
<edge from="76" id="76to77" to="77" length="6.86997066952" width="25"/>
<edge from="77" id="77to78" to="78" length="6.87091507734" width="25"/>
<edge from="78" id="78to79" to="79" length="6.86996601156" width="25"/>
<edge from="79" id="79to80" to="80" length="6.87119582023" width="25"/>
<edge from="80" id="80to81" to="81" length="6.8699049484" width="25"/>
<edge from="81" id="81to82" to="82" length="6.8699049484" width="25"/>
<edge from="82" id="82to83" to="83" length="6.87119582023" width="25"/>
<edge from="83" id="83to84" to="84" length="6.86996601156" width="25"/>
<edge from="84" id="84to85" to="85" length="6.87091507734" width="25"/>
<edge from="85" id="85to86" to="86" length="6.86997066952" width="25"/>
<edge from="86" id="86to87" to="87" length="6.87064771328" width="25"/>
<edge from="87" id="87to88" to="88" length="6.8709529179" width="25"/>
<edge from="88" id="88to89" to="89" length="6.87014737833" width="25"/>
<edge from="89" id="89to90" to="90" length="6.87055878368" width="25"/>
<edge from="90" id="90to91" to="91" length="6.87030748948" width="25"/>
<edge from="91" id="91to92" to="92" length="7.813" width="25"/>
<edge from="92" id="92to93" to="93" length="7.812" width="25"/>
<edge from="93" id="93to94" to="94" length="7.813" width="25"/>
<edge from="94" id="94to95" to="95" length="7.812" width="25"/>
<edge from="95" id="95to96" to="96" length="7.813" width="25"/>
<edge from="96" id="96to97" to="97" length="7.812" width="25"/>
<edge from="97" id="97to98" to="98" length="7.813" width="25"/>
<edge from="98" id="98to99" to="99" length="7.812" width="25"/>
<edge from="99" id="99to100" to="100" length="7.813" width="25"/>
<edge from="100" id="100to101" to="101" length="7.812" width="25"/>
<edge from="101" id="101to102" to="102" length="7.813" width="25"/>
<edge from="102" id="102to103" to="103" length="7.812" width="25"/>
<edge from="103" id="103to104" to="104" length="7.813" width="25"/>
<edge from="104" id="104to105" to="105" length="7.812" width="25"/>
<edge from="105" id="105to106" to="106" length="7.813" width="25"/>
<edge from="106" id="106to107" to="107" length="7.812" width="25"/>
<edge from="107" id="107to108" to="108" length="7.813" width="25"/>
<edge from="108" id="108to109" to="109" length="7.812" width="25"/>
<edge from="109" id="109to110" to="110" length="7.813" width="25"/>
<edge from="110" id="110to111" to="111" length="7.812" width="25"/>
<edge from="111" id="111to112" to="112" length="7.813" width="25"/>
<edge from="112" id="112to113" to="113" length="7.812" width="25"/>
<edge from="113" id="113to114" to="114" length="7.813" width="25"/>
<edge from="114" id="114to115" to="115" length="7.812" width="25"/>
<edge from="115" id="115to116" to="116" length="7.813" width="25"/>
<edge from="116" id="116to117" to="117" length="7.812" width="25"/>
<edge from="117" id="117to118" to="118" length="7.813" width="25"/>
<edge from="118" id="118to119" to="119" length="7.812" width="25"/>
<edge from="119" id="119to120" to="120" length="7.813" width="25"/>
<edge from="120" id="120to121" to="121" length="7.812" width="25"/>
<edge from="121" id="121to122" to="122" length="7.813" width="25"/>
<edge from="122" id="122to123" to="123" length="7.812" width="25"/>
<edge from="123" id="123to124" to="124" length="7.813" width="25"/>
<edge from="124" id="124to125" to="125" length="7.812" width="25"/>
<edge from="125" id="125to126" to="126" length="7.813" width="25"/>
<edge from="126" id="126to127" to="127" length="7.812" width="25"/>
<edge from="127" id="127to128" to="128" length="7.813" width="25"/>
<edge from="128" id="128to129" to="129" length="7.812" width="25"/>
<edge from="129" id="129to130" to="130" length="7.813" width="25"/>
<edge from="130" id="130to131" to="131" length="7.812" width="25"/>
<edge from="131" id="131to132" to="132" length="7.813" width="25"/>
<edge from="132" id="132to133" to="133" length="7.812" width="25"/>
<edge from="133" id="133to134" to="134" length="7.813" width="25"/>
<edge from="134" id="134to135" to="135" length="7.812" width="25"/>
<edge from="135" id="135to136" to="136" length="7.813" width="25"/>
<edge from="136" id="136to137" to="137" length="7.812" width="25"/>
<edge from="137" id="137to138" to="138" length="7.813" width="25"/>
<edge from="138" id="138to139" to="139" length="7.812" width="25"/>
<edge from="139" id="139to140" to="140" length="7.813" width="25"/>
<edge from="140" id="140to141" to="141" length="7.812" width="25"/>
<edge from="141" id="141to142" to="142" length="7.813" width="25"/>
<edge from="142" id="142to143" to="143" length="7.812" width="25"/>
<edge from="143" id="143to144" to="144" length="7.813" width="25"/>
<edge from="144" id="144to145" to="145" length="7.812" width="25"/>
<edge from="145" id="145to146" to="146" length="7.813" width="25"/>
<edge from="146" id="146to147" to="147" length="7.812" width="25"/>
<edge from="147" id="147to148" to="148" length="7.813" width="25"/>
<edge from="148" id="148to149" to="149" length="7.812" width="25"/>
<edge from="149" id="149to150" to="150" length="7.813" width="25"/>
<edge from="150" id="150to151" to="151" length="7.812" width="25"/>
<edge from="151" id="151to152" to="152" length="7.813" width="25"/>
<edge from="152" id="152to153" to="153" length="7.812" width="25"/>
<edge from="153" id="153to154" to="154" length="7.813" width="25"/>
<edge from="154" id="154to155" to="155" length="7.812" width="25"/>
<edge from="155" id="155to156" to="156" length="6.87030748948" width="25"/>
<edge from="156" id="156to157" to="157" length="6.87055878368" width="25"/>
<edge from="157" id="157to158" to="158" length="6.87073583832" width="25"/>
<edge from="158" id="158to159" to="159" length="6.8704716905" width="25"/>
<edge from="159" id="159to160" to="160" length="6.87055389397" width="25"/>
<edge from="160" id="160to161" to="161" length="6.87024311724" width="25"/>
<edge from="161" id="161to162" to="162" length="6.87047882247" width="25"/>
<edge from="162" id="162to163" to="163" length="6.87046488675" width="25"/>
<edge from="163" id="163to164" to="164" length="6.87072464592" width="25"/>
<edge from="164" id="164to165" to="165" length="6.87005182222" width="25"/>
<edge from="165" id="165to166" to="166" length="6.87031221707" width="25"/>
<edge from="166" id="166to167" to="167" length="6.87088627835" width="25"/>
<edge from="167" id="167to168" to="168" length="6.87079747919" width="25"/>
<edge from="168" id="168to169" to="169" length="6.87009144117" width="25"/>
<edge from="169" id="169to170" to="170" length="6.87009626497" width="25"/>
<edge from="170" id="170to171" to="171" length="6.87064771328" width="25"/>
<edge from="171" id="171to172" to="172" length="6.87092577532" width="25"/>
<edge from="172" id="172to173" to="173" length="6.87003028814" width="25"/>
<edge from="173" id="173to174" to="174" length="6.87061753047" width="25"/>
<edge from="174" id="174to175" to="175" length="6.87029570615" width="25"/>
<edge from="175" id="175to176" to="176" length="7.778" width="25"/>
<edge from="176" id="176to177" to="177" length="7.778" width="25"/>
<edge from="177" id="177to178" to="178" length="7.778" width="25"/>
<edge from="178" id="178to179" to="179" length="7.777" width="25"/>
<edge from="179" id="179to180" to="180" length="7.778" width="25"/>
<edge from="180" id="180to181" to="181" length="7.778" width="25"/>
<edge from="181" id="181to182" to="182" length="7.778" width="25"/>
<edge from="182" id="182to183" to="183" length="7.777" width="25"/>
<edge from="183" id="183to184" to="184" length="7.778" width="25"/>
<edge from="184" id="184to185" to="185" length="7.778" width="25"/>
<edge from="185" id="185to186" to="186" length="7.778" width="25"/>
<edge from="186" id="186to187" to="187" length="7.777" width="25"/>
<edge from="187" id="187to188" to="188" length="7.778" width="25"/>
<edge from="188" id="188to189" to="189" length="7.778" width="25"/>
<edge from="189" id="189to190" to="190" length="7.778" width="25"/>
<edge from="190" id="190to191" to="191" length="7.778" width="25"/>
<edge from="191" id="191to192" to="192" length="7.777" width="25"/>
<edge from="192" id="192to193" to="193" length="7.778" width="25"/>
<edge from="193" id="193to194" to="194" length="6.87029570615" width="25"/>
<edge from="194" id="194to195" to="195" length="6.87062928413" width="25"/>
<edge from="195" id="195to196" to="196" length="6.87061875816" width="25"/>
<edge from="196" id="196to197" to="197" length="6.87044454602" width="25"/>
<edge from="197" id="197to198" to="198" length="6.87046007484" width="25"/>
<edge from="198" id="198to199" to="199" length="6.87050138782" width="25"/>
<edge from="199" id="199to200" to="200" length="6.87044043494" width="25"/>
<edge from="200" id="200to201" to="201" length="6.87046488675" width="25"/>
<edge from="201" id="201to202" to="202" length="6.870493614" width="25"/>
<edge from="202" id="202to203" to="203" length="6.87045352943" width="25"/>
<edge from="203" id="203to204" to="204" length="6.87045352943" width="25"/>
<edge from="204" id="204to205" to="205" length="6.870493614" width="25"/>
<edge from="205" id="205to206" to="206" length="6.87046488675" width="25"/>
<edge from="206" id="206to207" to="207" length="6.87047882247" width="25"/>
<edge from="207" id="207to208" to="208" length="6.87050138782" width="25"/>
<edge from="208" id="208to209" to="209" length="6.87046007484" width="25"/>
<edge from="209" id="209to210" to="210" length="6.87044454602" width="25"/>
<edge from="210" id="210to211" to="211" length="6.87030501361" width="25"/>
<edge from="211" id="211to212" to="212" length="6.87061753047" width="25"/>
<edge from="212" id="212to213" to="213" length="6.87029963248" width="25"/>
<edge from="213" id="213to214" to="214" length="7.693" width="25"/>
<edge from="214" id="214to215" to="215" length="7.69200000065" width="25"/>
<edge from="215" id="215to216" to="216" length="7.692" width="25"/>
<edge from="216" id="216to217" to="217" length="7.692" width="25"/>
<edge from="217" id="217to218" to="218" length="7.693" width="25"/>
<edge from="218" id="218to219" to="219" length="7.692" width="25"/>
<edge from="219" id="219to220" to="220" length="7.692" width="25"/>
<edge from="220" id="220to221" to="221" length="7.69300000065" width="25"/>
<edge from="221" id="221to222" to="222" length="7.692" width="25"/>
<edge from="222" id="222to223" to="223" length="7.692" width="25"/>
<edge from="223" id="223to224" to="224" length="7.693" width="25"/>
<edge from="224" id="224to225" to="225" length="7.692" width="25"/>
<edge from="225" id="225to226" to="226" length="7.692" width="25"/>
<edge from="226" id="226to227" to="227" length="7.895" width="25"/>
<edge from="227" id="227to228" to="228" length="7.89500000063" width="25"/>
<edge from="228" id="228to229" to="229" length="7.894" width="25"/>
<edge from="229" id="229to230" to="230" length="7.895" width="25"/>
<edge from="230" id="230to231" to="231" length="7.895" width="25"/>
<edge from="231" id="231to232" to="232" length="7.895" width="25"/>
<edge from="232" id="232to233" to="233" length="7.894" width="25"/>
<edge from="233" id="233to234" to="234" length="7.89500000063" width="25"/>
<edge from="234" id="234to235" to="235" length="7.895" width="25"/>
<edge from="235" id="235to236" to="236" length="7.895" width="25"/>
<edge from="236" id="236to237" to="237" length="7.894" width="25"/>
<edge from="237" id="237to238" to="238" length="7.895" width="25"/>
<edge from="238" id="238to239" to="239" length="7.89500000063" width="25"/>
<edge from="239" id="239to240" to="240" length="7.894" width="25"/>
<edge from="240" id="240to241" to="241" length="7.895" width="25"/>
<edge from="241" id="241to242" to="242" length="7.895" width="25"/>
<edge from="242" id="242to0" to="0" length="15.789" width="25"/>
</edges>
