<routes>
<vType accel="0.5" decel="5.0" id="Car" length="2.0" maxSpeed="1.0" sigma="0.0" />
<route id="route0" edges="0to1 1to2 2to3 3to4 4to5 5to6 6to7 7to8 8to9 9to10 10to11 11to12 12to13 13to14 14to15 15to16 16to17 17to18 18to19 19to20 20to21 21to22 22to23 23to24 24to25 25to26 26to27 27to28 28to29 29to30 30to31 31to32 32to33 33to34 34to35 35to36 36to37 37to38 38to39 39to40 40to41 41to42 42to43 43to44 44to45 45to46 46to47 47to48 48to49 49to50 50to51 51to52 52to53 53to54 54to55 55to56 56to57 57to58 58to59 59to60 60to61 61to62 62to63 63to64 64to65 65to66 66to67 67to68 68to69 69to70 70to71 71to72 72to73 73to74 74to75 75to76 76to77 77to78 78to79 79to80 80to81 81to82 82to83 83to84 84to85 85to86 86to87 87to88 88to89 89to90 90to91 91to92 92to93 93to94 94to95 95to96 96to97 97to98 98to99 99to100 100to101 101to102 102to103 103to104 104to105 105to106 106to107 107to108 108to109 109to110 110to111 111to112 112to113 113to114 114to115 115to116 116to117 117to118 118to119 119to120 120to121 121to122 122to123 123to124 124to125 125to126 126to127 127to128 128to129 129to130 130to131 131to132 132to133 133to134 134to135 135to136 136to137 137to138 138to139 139to140 140to141 141to142 142to143 143to144 144to145 145to146 146to147 147to148 148to149 149to150 150to151 151to152 152to153 153to154 154to155 155to156 156to157 157to158 158to159 159to160 160to161 161to162 162to163 163to164 164to165 165to166 166to167 167to168 168to169 169to170 170to171 171to172 172to173 173to174 174to175 175to176 176to177 177to178 178to179 179to180 180to181 181to182 182to183 183to184 184to185 185to186 186to187 187to188 188to189 189to190 190to191 191to192 192to193 193to194 194to195 195to196 196to197 197to198 198to199 199to200 200to201 201to202 202to203 203to204 204to205 205to206 206to207 207to208 208to209 209to210 210to211 211to212 212to213 213to214 214to215 215to216 216to217 217to218 218to219 219to220 220to221 221to222 222to223 223to224 224to225 225to226 226to227 227to228 228to229 229to230 230to231 231to232 232to233 233to234 234to235 235to236 236to237 237to238 238to239 239to240 240to241 241to242 242to243 243to244 244to245 245to246 246to247 247to248 248to249 249to250 250to251 251to252 252to253 253to254 254to255 255to256 256to257 257to258 258to259 259to260 260to261 261to262 262to263 263to264 264to265 265to266 266to267 267to268 268to269 269to270 270to271 271to272 272to273 273to274 274to275 275to276 276to277 277to278 278to279 279to280 280to281 281to282 282to283 283to284 284to285 285to286 286to287 287to288 288to289 289to290 290to291 291to292 292to293 293to294 294to295 295to296 296to297 297to298 298to299 299to300 300to301 301to302 302to303 303to304 304to305 305to306 306to307 307to308 308to309 309to310 310to311 311to312 312to313 313to314 314to315 315to316 316to317 317to318 318to319 319to320 320to321 321to322 322to323 323to324 324to325 325to326 326to327 327to328 328to329 329to330 330to331 331to332 332to333 333to334 334to335 335to336 336to337 337to338 338to339 339to340 340to341 341to342 342to343 343to344 344to345 345to346 346to347 347to348 348to349 349to350 350to351 351to352 352to353 353to354 354to355 355to356 356to357 357to358 358to359 359to360 360to361 361to362 362to363 363to364 364to365 365to366 366to367 367to368 368to369 369to370 370to371 371to372 372to373 373to374 374to375 375to376 376to377 377to378 378to379 379to380 380to381 381to382 382to383 383to384 384to385 385to386 386to387 387to388 388to389 389to390 390to391 391to392 392to393 393to394 394to395 395to396 396to397 397to398 398to399 399to400 400to401 401to402 402to403 403to404 404to405 405to406 406to407 407to408 408to409 409to410 410to411 411to412 412to413 413to414 414to415 415to416 416to417 417to418 418to419 419to420 420to421 421to422 422to423 423to424 424to425 425to426 426to427 427to428 428to429 429to430 430to431 431to432 432to433 433to434 434to435 435to436 436to437 437to438 438to439 439to440 440to441 441to442 442to443 443to444 444to445 445to446 446to447 447to448 448to449 449to450 450to451 451to452 452to453 453to454 454to455 455to456 456to457 457to458 458to459 459to460 460to461 461to462 462to463 463to464 464to465 465to466 466to467 467to468 468to469 469to470 470to471 471to472 472to473 473to474 474to475 475to476 476to477 477to478 478to479 479to0" />
</routes>
