<nodes>
<node id="0" x="889.301" y="773.452"/>
<node id="1" x="898.68" y="773.446"/>
<node id="2" x="908.055" y="773.446"/>
<node id="3" x="917.43" y="773.446"/>
<node id="4" x="926.805" y="773.446"/>
<node id="5" x="936.18" y="773.446"/>
<node id="6" x="945.555" y="773.446"/>
<node id="7" x="954.93" y="773.446"/>
<node id="8" x="964.305" y="773.446"/>
<node id="9" x="973.68" y="773.446"/>
<node id="10" x="983.055" y="773.446"/>
<node id="11" x="992.43" y="773.446"/>
<node id="12" x="1001.8" y="773.446"/>
<node id="13" x="1011.18" y="773.446"/>
<node id="14" x="1020.55" y="773.446"/>
<node id="15" x="1029.93" y="773.446"/>
<node id="16" x="1039.3" y="773.446"/>
<node id="17" x="1048.68" y="773.446"/>
<node id="18" x="1057.94" y="773.446"/>
<node id="19" x="1067.2" y="773.446"/>
<node id="20" x="1076.46" y="773.446"/>
<node id="21" x="1085.72" y="773.446"/>
<node id="22" x="1094.98" y="773.446"/>
<node id="23" x="1104.24" y="773.446"/>
<node id="24" x="1113.49" y="773.446"/>
<node id="25" x="1122.75" y="773.446"/>
<node id="26" x="1132.01" y="773.446"/>
<node id="27" x="1140.93" y="772.901"/>
<node id="28" x="1149.71" y="771.273"/>
<node id="29" x="1158.23" y="768.586"/>
<node id="30" x="1166.36" y="764.882"/>
<node id="31" x="1174.77" y="760.41"/>
<node id="32" x="1183.18" y="755.939"/>
<node id="33" x="1191.59" y="751.468"/>
<node id="34" x="1200.0" y="746.997"/>
<node id="35" x="1208.41" y="742.526"/>
<node id="36" x="1216.82" y="738.055"/>
<node id="37" x="1225.23" y="733.584"/>
<node id="38" x="1233.63" y="729.112"/>
<node id="39" x="1242.04" y="724.641"/>
<node id="40" x="1250.45" y="720.17"/>
<node id="41" x="1258.86" y="715.699"/>
<node id="42" x="1267.27" y="711.228"/>
<node id="43" x="1275.68" y="706.757"/>
<node id="44" x="1284.09" y="702.285"/>
<node id="45" x="1292.49" y="697.063"/>
<node id="46" x="1300.1" y="690.756"/>
<node id="47" x="1306.8" y="683.48"/>
<node id="48" x="1312.46" y="675.367"/>
<node id="49" x="1316.96" y="666.565"/>
<node id="50" x="1320.24" y="657.236"/>
<node id="51" x="1322.24" y="647.55"/>
<node id="52" x="1322.91" y="637.683"/>
<node id="53" x="1322.91" y="628.937"/>
<node id="54" x="1322.91" y="620.191"/>
<node id="55" x="1322.91" y="611.445"/>
<node id="56" x="1322.91" y="602.699"/>
<node id="57" x="1322.91" y="593.953"/>
<node id="58" x="1322.91" y="585.207"/>
<node id="59" x="1322.91" y="576.461"/>
<node id="60" x="1323.44" y="568.478"/>
<node id="61" x="1325.02" y="560.636"/>
<node id="62" x="1327.64" y="553.073"/>
<node id="63" x="1331.23" y="545.924"/>
<node id="64" x="1335.74" y="539.316"/>
<node id="65" x="1341.09" y="533.364"/>
<node id="66" x="1347.18" y="528.174"/>
<node id="67" x="1353.9" y="523.838"/>
<node id="68" x="1361.85" y="519.431"/>
<node id="69" x="1369.81" y="515.024"/>
<node id="70" x="1377.76" y="510.616"/>
<node id="71" x="1385.71" y="506.209"/>
<node id="72" x="1393.66" y="501.802"/>
<node id="73" x="1401.61" y="497.394"/>
<node id="74" x="1409.56" y="492.987"/>
<node id="75" x="1417.51" y="488.58"/>
<node id="76" x="1425.46" y="484.172"/>
<node id="77" x="1433.41" y="479.765"/>
<node id="78" x="1441.37" y="475.358"/>
<node id="79" x="1449.69" y="470.74"/>
<node id="80" x="1458.02" y="466.123"/>
<node id="81" x="1466.35" y="461.506"/>
<node id="82" x="1474.68" y="456.889"/>
<node id="83" x="1483.01" y="452.271"/>
<node id="84" x="1491.34" y="447.654"/>
<node id="85" x="1499.67" y="443.037"/>
<node id="86" x="1508.32" y="437.205"/>
<node id="87" x="1515.82" y="429.96"/>
<node id="88" x="1521.95" y="421.522"/>
<node id="89" x="1526.52" y="412.148"/>
<node id="90" x="1529.4" y="402.122"/>
<node id="91" x="1530.49" y="391.75"/>
<node id="92" x="1529.76" y="381.345"/>
<node id="93" x="1527.24" y="371.226"/>
<node id="94" x="1523.0" y="361.698"/>
<node id="95" x="1517.16" y="353.051"/>
<node id="96" x="1509.92" y="345.549"/>
<node id="97" x="1503.45" y="339.925"/>
<node id="98" x="1496.98" y="334.302"/>
<node id="99" x="1490.51" y="328.679"/>
<node id="100" x="1484.04" y="323.055"/>
<node id="101" x="1477.57" y="317.432"/>
<node id="102" x="1471.11" y="311.809"/>
<node id="103" x="1464.64" y="306.185"/>
<node id="104" x="1457.72" y="300.171"/>
<node id="105" x="1450.8" y="294.157"/>
<node id="106" x="1443.88" y="288.143"/>
<node id="107" x="1436.96" y="282.13"/>
<node id="108" x="1430.05" y="276.116"/>
<node id="109" x="1423.13" y="270.102"/>
<node id="110" x="1416.21" y="264.088"/>
<node id="111" x="1409.29" y="258.074"/>
<node id="112" x="1401.71" y="251.932"/>
<node id="113" x="1393.71" y="246.333"/>
<node id="114" x="1385.35" y="241.307"/>
<node id="115" x="1376.65" y="236.875"/>
<node id="116" x="1367.66" y="233.062"/>
<node id="117" x="1358.44" y="229.884"/>
<node id="118" x="1348.99" y="226.997"/>
<node id="119" x="1339.55" y="224.109"/>
<node id="120" x="1330.1" y="221.221"/>
<node id="121" x="1320.66" y="218.334"/>
<node id="122" x="1311.21" y="215.446"/>
<node id="123" x="1301.77" y="212.558"/>
<node id="124" x="1292.32" y="209.671"/>
<node id="125" x="1282.88" y="206.783"/>
<node id="126" x="1273.43" y="203.896"/>
<node id="127" x="1263.99" y="201.008"/>
<node id="128" x="1254.54" y="198.12"/>
<node id="129" x="1245.1" y="195.233"/>
<node id="130" x="1235.65" y="192.345"/>
<node id="131" x="1226.21" y="189.457"/>
<node id="132" x="1216.76" y="186.57"/>
<node id="133" x="1207.32" y="183.682"/>
<node id="134" x="1197.87" y="180.794"/>
<node id="135" x="1188.43" y="177.907"/>
<node id="136" x="1178.98" y="175.019"/>
<node id="137" x="1169.54" y="172.132"/>
<node id="138" x="1160.09" y="169.244"/>
<node id="139" x="1150.65" y="166.356"/>
<node id="140" x="1141.2" y="163.469"/>
<node id="141" x="1131.76" y="160.581"/>
<node id="142" x="1122.31" y="157.693"/>
<node id="143" x="1112.87" y="154.806"/>
<node id="144" x="1103.42" y="151.918"/>
<node id="145" x="1093.59" y="149.175"/>
<node id="146" x="1083.63" y="146.922"/>
<node id="147" x="1073.57" y="145.163"/>
<node id="148" x="1063.44" y="143.904"/>
<node id="149" x="1053.25" y="143.148"/>
<node id="150" x="1043.05" y="142.895"/>
<node id="151" x="1033.67" y="142.895"/>
<node id="152" x="1024.3" y="142.895"/>
<node id="153" x="1014.92" y="142.895"/>
<node id="154" x="1005.55" y="142.895"/>
<node id="155" x="996.172" y="142.895"/>
<node id="156" x="986.797" y="142.895"/>
<node id="157" x="977.422" y="142.895"/>
<node id="158" x="968.047" y="142.895"/>
<node id="159" x="958.672" y="142.895"/>
<node id="160" x="949.297" y="142.895"/>
<node id="161" x="939.922" y="142.895"/>
<node id="162" x="930.547" y="142.895"/>
<node id="163" x="921.172" y="142.895"/>
<node id="164" x="911.797" y="142.895"/>
<node id="165" x="902.422" y="142.895"/>
<node id="166" x="893.047" y="142.895"/>
<node id="167" x="882.7" y="144.061"/>
<node id="168" x="872.871" y="147.5"/>
<node id="169" x="864.055" y="153.04"/>
<node id="170" x="856.692" y="160.403"/>
<node id="171" x="851.152" y="169.22"/>
<node id="172" x="847.713" y="179.048"/>
<node id="173" x="846.547" y="189.395"/>
<node id="174" x="846.547" y="197.729"/>
<node id="175" x="846.547" y="206.062"/>
<node id="176" x="846.547" y="214.395"/>
<node id="177" x="846.547" y="222.728"/>
<node id="178" x="847.243" y="231.831"/>
<node id="179" x="849.316" y="240.721"/>
<node id="180" x="852.717" y="249.192"/>
<node id="181" x="857.368" y="257.047"/>
<node id="182" x="862.148" y="263.874"/>
<node id="183" x="866.927" y="270.7"/>
<node id="184" x="871.707" y="277.526"/>
<node id="185" x="876.487" y="284.352"/>
<node id="186" x="880.278" y="291.054"/>
<node id="187" x="882.721" y="298.356"/>
<node id="188" x="883.727" y="305.989"/>
<node id="189" x="883.256" y="313.675"/>
<node id="190" x="881.329" y="321.129"/>
<node id="191" x="878.014" y="328.078"/>
<node id="192" x="873.434" y="334.268"/>
<node id="193" x="867.858" y="340.461"/>
<node id="194" x="862.282" y="346.654"/>
<node id="195" x="856.706" y="352.846"/>
<node id="196" x="851.13" y="359.039"/>
<node id="197" x="845.999" y="363.46"/>
<node id="198" x="839.925" y="366.456"/>
<node id="199" x="833.294" y="367.835"/>
<node id="200" x="826.529" y="367.51"/>
<node id="201" x="818.322" y="366.063"/>
<node id="202" x="810.115" y="364.616"/>
<node id="203" x="801.909" y="363.169"/>
<node id="204" x="793.702" y="361.722"/>
<node id="205" x="785.495" y="360.275"/>
<node id="206" x="777.289" y="358.828"/>
<node id="207" x="769.082" y="357.381"/>
<node id="208" x="760.875" y="355.934"/>
<node id="209" x="752.668" y="354.487"/>
<node id="210" x="744.462" y="353.039"/>
<node id="211" x="736.255" y="351.592"/>
<node id="212" x="728.048" y="350.145"/>
<node id="213" x="719.194" y="348.256"/>
<node id="214" x="710.496" y="345.74"/>
<node id="215" x="702.001" y="342.609"/>
<node id="216" x="693.75" y="338.881"/>
<node id="217" x="685.786" y="334.573"/>
<node id="218" x="678.15" y="329.709"/>
<node id="219" x="670.881" y="324.312"/>
<node id="220" x="664.015" y="318.41"/>
<node id="221" x="657.587" y="312.033"/>
<node id="222" x="651.631" y="305.214"/>
<node id="223" x="646.177" y="297.987"/>
<node id="224" x="640.553" y="289.957"/>
<node id="225" x="634.93" y="281.926"/>
<node id="226" x="629.307" y="273.895"/>
<node id="227" x="623.684" y="265.864"/>
<node id="228" x="618.06" y="257.833"/>
<node id="229" x="612.437" y="249.802"/>
<node id="230" x="606.814" y="241.771"/>
<node id="231" x="601.19" y="233.74"/>
<node id="232" x="595.567" y="225.709"/>
<node id="233" x="589.944" y="217.678"/>
<node id="234" x="584.321" y="209.648"/>
<node id="235" x="578.697" y="201.617"/>
<node id="236" x="573.074" y="193.586"/>
<node id="237" x="567.451" y="185.555"/>
<node id="238" x="561.827" y="177.524"/>
<node id="239" x="556.204" y="169.493"/>
<node id="240" x="550.581" y="161.462"/>
<node id="241" x="544.593" y="153.34"/>
<node id="242" x="538.215" y="145.521"/>
<node id="243" x="531.464" y="138.022"/>
<node id="244" x="524.354" y="130.862"/>
<node id="245" x="516.902" y="124.058"/>
<node id="246" x="509.127" y="117.626"/>
<node id="247" x="501.048" y="111.582"/>
<node id="248" x="492.682" y="105.939"/>
<node id="249" x="484.051" y="100.712"/>
<node id="250" x="475.175" y="95.9129"/>
<node id="251" x="466.689" y="91.5892"/>
<node id="252" x="458.204" y="87.2654"/>
<node id="253" x="449.718" y="82.9417"/>
<node id="254" x="441.232" y="78.618"/>
<node id="255" x="432.746" y="74.2943"/>
<node id="256" x="424.26" y="69.9705"/>
<node id="257" x="415.775" y="65.6468"/>
<node id="258" x="407.289" y="61.3231"/>
<node id="259" x="398.803" y="56.9993"/>
<node id="260" x="390.317" y="52.6756"/>
<node id="261" x="381.832" y="48.3519"/>
<node id="262" x="373.346" y="44.0281"/>
<node id="263" x="364.86" y="39.7044"/>
<node id="264" x="356.374" y="35.3807"/>
<node id="265" x="347.603" y="31.1686"/>
<node id="266" x="338.643" y="27.3746"/>
<node id="267" x="329.514" y="24.0068"/>
<node id="268" x="320.237" y="21.0727"/>
<node id="269" x="310.832" y="18.5789"/>
<node id="270" x="301.319" y="16.5309"/>
<node id="271" x="291.721" y="14.9334"/>
<node id="272" x="282.059" y="13.7897"/>
<node id="273" x="272.353" y="13.1025"/>
<node id="274" x="262.625" y="12.8732"/>
<node id="275" x="254.292" y="12.8732"/>
<node id="276" x="245.959" y="12.8732"/>
<node id="277" x="237.625" y="12.8732"/>
<node id="278" x="229.292" y="12.8732"/>
<node id="279" x="220.959" y="12.8732"/>
<node id="280" x="212.625" y="12.8732"/>
<node id="281" x="203.25" y="12.8732"/>
<node id="282" x="193.875" y="12.8732"/>
<node id="283" x="184.5" y="12.8732"/>
<node id="284" x="175.125" y="12.8732"/>
<node id="285" x="165.75" y="12.8732"/>
<node id="286" x="156.375" y="12.8732"/>
<node id="287" x="147.0" y="12.8732"/>
<node id="288" x="137.625" y="12.8732"/>
<node id="289" x="128.25" y="12.8732"/>
<node id="290" x="118.875" y="12.8732"/>
<node id="291" x="109.5" y="12.8732"/>
<node id="292" x="100.125" y="12.8732"/>
<node id="293" x="90.7503" y="12.8732"/>
<node id="294" x="81.3753" y="12.8732"/>
<node id="295" x="72.0003" y="12.8732"/>
<node id="296" x="62.6253" y="12.8732"/>
<node id="297" x="51.0623" y="14.5884"/>
<node id="298" x="40.4951" y="19.5863"/>
<node id="299" x="31.8337" y="27.4365"/>
<node id="300" x="25.8241" y="37.463"/>
<node id="301" x="22.9837" y="48.8022"/>
<node id="302" x="23.5573" y="60.4776"/>
<node id="303" x="27.4954" y="71.4838"/>
<node id="304" x="34.4587" y="80.8729"/>
<node id="305" x="41.1931" y="87.6073"/>
<node id="306" x="47.9274" y="94.3417"/>
<node id="307" x="54.6617" y="101.076"/>
<node id="308" x="61.396" y="107.81"/>
<node id="309" x="68.1303" y="114.545"/>
<node id="310" x="74.8646" y="121.279"/>
<node id="311" x="81.5989" y="128.014"/>
<node id="312" x="88.3333" y="134.748"/>
<node id="313" x="95.0676" y="141.482"/>
<node id="314" x="101.802" y="148.217"/>
<node id="315" x="108.536" y="154.951"/>
<node id="316" x="115.271" y="161.685"/>
<node id="317" x="122.005" y="168.42"/>
<node id="318" x="128.739" y="175.154"/>
<node id="319" x="135.43" y="181.074"/>
<node id="320" x="142.792" y="186.134"/>
<node id="321" x="150.716" y="190.259"/>
<node id="322" x="159.084" y="193.387"/>
<node id="323" x="167.778" y="196.045"/>
<node id="324" x="176.471" y="198.703"/>
<node id="325" x="185.165" y="201.361"/>
<node id="326" x="193.859" y="204.019"/>
<node id="327" x="202.552" y="206.677"/>
<node id="328" x="211.246" y="209.335"/>
<node id="329" x="219.94" y="211.993"/>
<node id="330" x="228.633" y="214.651"/>
<node id="331" x="237.327" y="217.309"/>
<node id="332" x="246.021" y="219.967"/>
<node id="333" x="254.714" y="222.625"/>
<node id="334" x="261.595" y="225.198"/>
<node id="335" x="268.111" y="228.59"/>
<node id="336" x="274.165" y="232.751"/>
<node id="337" x="279.667" y="237.618"/>
<node id="338" x="284.535" y="243.12"/>
<node id="339" x="290.398" y="250.625"/>
<node id="340" x="296.262" y="258.13"/>
<node id="341" x="302.125" y="265.635"/>
<node id="342" x="307.989" y="273.14"/>
<node id="343" x="313.852" y="280.645"/>
<node id="344" x="319.715" y="288.15"/>
<node id="345" x="325.579" y="295.654"/>
<node id="346" x="331.327" y="303.403"/>
<node id="347" x="336.683" y="311.429"/>
<node id="348" x="341.631" y="319.711"/>
<node id="349" x="346.161" y="328.23"/>
<node id="350" x="350.26" y="336.964"/>
<node id="351" x="353.919" y="345.892"/>
<node id="352" x="357.128" y="354.99"/>
<node id="353" x="359.88" y="364.238"/>
<node id="354" x="362.167" y="373.611"/>
<node id="355" x="363.984" y="383.086"/>
<node id="356" x="365.327" y="392.641"/>
<node id="357" x="366.192" y="402.25"/>
<node id="358" x="366.577" y="411.891"/>
<node id="359" x="366.481" y="421.538"/>
<node id="360" x="365.904" y="431.169"/>
<node id="361" x="364.847" y="440.76"/>
<node id="362" x="363.314" y="450.285"/>
<node id="363" x="361.308" y="459.722"/>
<node id="364" x="358.834" y="469.048"/>
<node id="365" x="355.898" y="478.239"/>
<node id="366" x="352.508" y="487.272"/>
<node id="367" x="348.672" y="496.125"/>
<node id="368" x="344.399" y="504.775"/>
<node id="369" x="339.701" y="513.202"/>
<node id="370" x="334.588" y="521.384"/>
<node id="371" x="329.073" y="529.301"/>
<node id="372" x="323.171" y="536.933"/>
<node id="373" x="316.896" y="544.262"/>
<node id="374" x="310.813" y="551.018"/>
<node id="375" x="304.73" y="557.774"/>
<node id="376" x="298.647" y="564.53"/>
<node id="377" x="292.564" y="571.285"/>
<node id="378" x="286.481" y="578.041"/>
<node id="379" x="280.398" y="584.797"/>
<node id="380" x="274.315" y="591.553"/>
<node id="381" x="268.232" y="598.309"/>
<node id="382" x="262.149" y="605.065"/>
<node id="383" x="256.066" y="611.82"/>
<node id="384" x="249.982" y="618.576"/>
<node id="385" x="244.211" y="625.413"/>
<node id="386" x="238.889" y="632.606"/>
<node id="387" x="234.038" y="640.123"/>
<node id="388" x="229.678" y="647.936"/>
<node id="389" x="225.826" y="656.012"/>
<node id="390" x="222.498" y="664.317"/>
<node id="391" x="219.241" y="673.266"/>
<node id="392" x="215.984" y="682.216"/>
<node id="393" x="212.726" y="691.165"/>
<node id="394" x="209.469" y="700.115"/>
<node id="395" x="206.211" y="709.064"/>
<node id="396" x="202.954" y="718.014"/>
<node id="397" x="199.697" y="726.963"/>
<node id="398" x="197.077" y="736.597"/>
<node id="399" x="196.095" y="746.532"/>
<node id="400" x="196.779" y="756.492"/>
<node id="401" x="199.109" y="766.2"/>
<node id="402" x="203.022" y="775.385"/>
<node id="403" x="208.407" y="783.792"/>
<node id="404" x="215.115" y="791.187"/>
<node id="405" x="221.21" y="796.87"/>
<node id="406" x="227.304" y="802.553"/>
<node id="407" x="233.399" y="808.237"/>
<node id="408" x="239.493" y="813.92"/>
<node id="409" x="247.257" y="819.77"/>
<node id="410" x="256.067" y="823.879"/>
<node id="411" x="265.539" y="826.066"/>
<node id="412" x="275.259" y="826.235"/>
<node id="413" x="284.801" y="824.381"/>
<node id="414" x="293.75" y="820.582"/>
<node id="415" x="301.038" y="816.542"/>
<node id="416" x="308.327" y="812.502"/>
<node id="417" x="315.615" y="808.462"/>
<node id="418" x="322.904" y="804.422"/>
<node id="419" x="329.778" y="801.162"/>
<node id="420" x="337.009" y="798.795"/>
<node id="421" x="344.48" y="797.36"/>
<node id="422" x="352.073" y="796.879"/>
<node id="423" x="360.407" y="796.879"/>
<node id="424" x="368.74" y="796.879"/>
<node id="425" x="377.073" y="796.879"/>
<node id="426" x="385.406" y="796.879"/>
<node id="427" x="394.478" y="795.986"/>
<node id="428" x="403.201" y="793.34"/>
<node id="429" x="411.241" y="789.043"/>
<node id="430" x="418.287" y="783.26"/>
<node id="431" x="423.364" y="779.094"/>
<node id="432" x="429.155" y="775.998"/>
<node id="433" x="435.44" y="774.092"/>
<node id="434" x="441.975" y="773.448"/>
<node id="435" x="451.499" y="773.448"/>
<node id="436" x="461.023" y="773.448"/>
<node id="437" x="470.547" y="773.448"/>
<node id="438" x="480.07" y="773.448"/>
<node id="439" x="489.594" y="773.448"/>
<node id="440" x="499.118" y="773.448"/>
<node id="441" x="508.642" y="773.449"/>
<node id="442" x="518.166" y="773.449"/>
<node id="443" x="527.689" y="773.449"/>
<node id="444" x="537.213" y="773.449"/>
<node id="445" x="546.737" y="773.449"/>
<node id="446" x="556.261" y="773.449"/>
<node id="447" x="565.785" y="773.449"/>
<node id="448" x="575.308" y="773.449"/>
<node id="449" x="584.832" y="773.449"/>
<node id="450" x="594.356" y="773.449"/>
<node id="451" x="603.88" y="773.449"/>
<node id="452" x="613.404" y="773.449"/>
<node id="453" x="622.927" y="773.449"/>
<node id="454" x="632.451" y="773.45"/>
<node id="455" x="641.975" y="773.45"/>
<node id="456" x="651.675" y="773.45"/>
<node id="457" x="661.375" y="773.45"/>
<node id="458" x="671.075" y="773.45"/>
<node id="459" x="680.775" y="773.45"/>
<node id="460" x="690.475" y="773.45"/>
<node id="461" x="700.176" y="773.45"/>
<node id="462" x="709.876" y="773.45"/>
<node id="463" x="719.576" y="773.45"/>
<node id="464" x="729.276" y="773.45"/>
<node id="465" x="738.976" y="773.45"/>
<node id="466" x="748.676" y="773.45"/>
<node id="467" x="758.051" y="773.451"/>
<node id="468" x="767.426" y="773.451"/>
<node id="469" x="776.801" y="773.451"/>
<node id="470" x="786.176" y="773.451"/>
<node id="471" x="795.551" y="773.451"/>
<node id="472" x="804.926" y="773.451"/>
<node id="473" x="814.301" y="773.451"/>
<node id="474" x="823.676" y="773.451"/>
<node id="475" x="833.051" y="773.451"/>
<node id="476" x="842.426" y="773.451"/>
<node id="477" x="851.801" y="773.451"/>
<node id="478" x="861.176" y="773.451"/>
<node id="479" x="870.551" y="773.451"/>
</nodes>
