<?xml version="1.0" encoding="UTF-8"?>

<!-- generated on Wed Mar  8 13:11:00 2017 by SUMO netconvert Version 0.29.0
<?xml version="1.0" encoding="UTF-8"?>

<configuration xmlns:xsi="http://www.w3.org/2001/XMLSchema-instance" xsi:noNamespaceSchemaLocation="http://sumo.dlr.de/xsd/netconvertConfiguration.xsd">

    <input>
        <node-files value="Track01.nod.xml"/>
        <edge-files value="Track01.edg.xml"/>
    </input>

</configuration>
-->

<net version="0.27" xmlns:xsi="http://www.w3.org/2001/XMLSchema-instance" xsi:noNamespaceSchemaLocation="http://sumo.dlr.de/xsd/net_file.xsd">

    <location netOffset="-22.98,-12.87" convBoundary="0.00,0.00,1507.51,813.36" origBoundary="22.98,12.87,1530.49,826.24" projParameter="!"/>

    <edge id=":0_0" function="internal">
        <lane id=":0_0_0" index="0" speed="13.90" length="0.30" width="13.00" shape="866.17,754.03 866.47,754.03"/>
    </edge>
    <edge id=":1_0" function="internal">
        <lane id=":1_0_0" index="0" speed="13.90" length="0.30" width="13.00" shape="875.54,754.02 875.84,754.02"/>
    </edge>
    <edge id=":10_0" function="internal">
        <lane id=":10_0_0" index="0" speed="13.90" length="0.10" width="13.00" shape="960.07,754.02 960.07,754.02"/>
    </edge>
    <edge id=":100_0" function="internal">
        <lane id=":100_0_0" index="0" speed="13.90" length="0.10" width="13.00" shape="1456.76,315.13 1456.76,315.13"/>
    </edge>
    <edge id=":101_0" function="internal">
        <lane id=":101_0_0" index="0" speed="13.90" length="0.30" width="13.00" shape="1450.40,309.60 1450.17,309.40"/>
    </edge>
    <edge id=":102_0" function="internal">
        <lane id=":102_0_0" index="0" speed="13.90" length="0.30" width="13.00" shape="1443.94,303.98 1443.71,303.78"/>
    </edge>
    <edge id=":103_0" function="internal">
        <lane id=":103_0_0" index="0" speed="13.90" length="0.10" width="13.00" shape="1437.36,298.26 1437.36,298.26"/>
    </edge>
    <edge id=":104_0" function="internal">
        <lane id=":104_0_0" index="0" speed="13.90" length="0.10" width="13.00" shape="1430.44,292.24 1430.44,292.24"/>
    </edge>
    <edge id=":105_0" function="internal">
        <lane id=":105_0_0" index="0" speed="13.90" length="0.10" width="13.00" shape="1423.52,286.23 1423.52,286.23"/>
    </edge>
    <edge id=":106_0" function="internal">
        <lane id=":106_0_0" index="0" speed="13.90" length="0.10" width="13.00" shape="1416.60,280.21 1416.60,280.21"/>
    </edge>
    <edge id=":107_0" function="internal">
        <lane id=":107_0_0" index="0" speed="13.90" length="0.30" width="13.00" shape="1409.79,274.30 1409.57,274.10"/>
    </edge>
    <edge id=":108_0" function="internal">
        <lane id=":108_0_0" index="0" speed="13.90" length="0.30" width="13.00" shape="1402.88,268.28 1402.65,268.09"/>
    </edge>
    <edge id=":109_0" function="internal">
        <lane id=":109_0_0" index="0" speed="13.90" length="0.10" width="13.00" shape="1395.85,262.17 1395.85,262.17"/>
    </edge>
    <edge id=":11_0" function="internal">
        <lane id=":11_0_0" index="0" speed="13.90" length="0.10" width="13.00" shape="969.45,754.02 969.45,754.02"/>
    </edge>
    <edge id=":110_0" function="internal">
        <lane id=":110_0_0" index="0" speed="13.90" length="0.10" width="13.00" shape="1388.93,256.16 1388.93,256.16"/>
    </edge>
    <edge id=":111_0" function="internal">
        <lane id=":111_0_0" index="0" speed="13.90" length="0.24" width="13.00" shape="1382.19,250.30 1382.00,250.14"/>
    </edge>
    <edge id=":112_0" function="internal">
        <lane id=":112_0_0" index="0" speed="13.90" length="0.46" width="13.00" shape="1374.96,244.44 1374.59,244.16"/>
    </edge>
    <edge id=":113_0" function="internal">
        <lane id=":113_0_0" index="0" speed="13.90" length="0.45" width="13.00" shape="1367.34,239.09 1366.96,238.84"/>
    </edge>
    <edge id=":114_0" function="internal">
        <lane id=":114_0_0" index="0" speed="13.90" length="0.46" width="13.00" shape="1359.38,234.28 1358.99,234.06"/>
    </edge>
    <edge id=":115_0" function="internal">
        <lane id=":115_0_0" index="0" speed="13.90" length="0.46" width="13.00" shape="1351.10,230.05 1350.69,229.85"/>
    </edge>
    <edge id=":116_0" function="internal">
        <lane id=":116_0_0" index="0" speed="13.90" length="0.45" width="13.00" shape="1342.53,226.40 1342.11,226.23"/>
    </edge>
    <edge id=":117_0" function="internal">
        <lane id=":117_0_0" index="0" speed="13.90" length="0.24" width="13.00" shape="1333.54,223.28 1333.32,223.21"/>
    </edge>
    <edge id=":118_0" function="internal">
        <lane id=":118_0_0" index="0" speed="13.90" length="0.10" width="13.00" shape="1324.09,220.39 1324.09,220.39"/>
    </edge>
    <edge id=":119_0" function="internal">
        <lane id=":119_0_0" index="0" speed="13.90" length="0.10" width="13.00" shape="1314.65,217.50 1314.65,217.50"/>
    </edge>
    <edge id=":12_0" function="internal">
        <lane id=":12_0_0" index="0" speed="13.90" length="0.10" width="13.00" shape="978.82,754.02 978.82,754.02"/>
    </edge>
    <edge id=":120_0" function="internal">
        <lane id=":120_0_0" index="0" speed="13.90" length="0.10" width="13.00" shape="1305.20,214.61 1305.20,214.61"/>
    </edge>
    <edge id=":121_0" function="internal">
        <lane id=":121_0_0" index="0" speed="13.90" length="0.10" width="13.00" shape="1295.76,211.72 1295.76,211.72"/>
    </edge>
    <edge id=":122_0" function="internal">
        <lane id=":122_0_0" index="0" speed="13.90" length="0.10" width="13.00" shape="1286.31,208.84 1286.31,208.84"/>
    </edge>
    <edge id=":123_0" function="internal">
        <lane id=":123_0_0" index="0" speed="13.90" length="0.10" width="13.00" shape="1276.87,205.95 1276.87,205.95"/>
    </edge>
    <edge id=":124_0" function="internal">
        <lane id=":124_0_0" index="0" speed="13.90" length="0.10" width="13.00" shape="1267.42,203.06 1267.42,203.06"/>
    </edge>
    <edge id=":125_0" function="internal">
        <lane id=":125_0_0" index="0" speed="13.90" length="0.10" width="13.00" shape="1257.98,200.17 1257.98,200.17"/>
    </edge>
    <edge id=":126_0" function="internal">
        <lane id=":126_0_0" index="0" speed="13.90" length="0.10" width="13.00" shape="1248.53,197.29 1248.53,197.29"/>
    </edge>
    <edge id=":127_0" function="internal">
        <lane id=":127_0_0" index="0" speed="13.90" length="0.10" width="13.00" shape="1239.09,194.40 1239.09,194.40"/>
    </edge>
    <edge id=":128_0" function="internal">
        <lane id=":128_0_0" index="0" speed="13.90" length="0.10" width="13.00" shape="1229.64,191.51 1229.64,191.51"/>
    </edge>
    <edge id=":129_0" function="internal">
        <lane id=":129_0_0" index="0" speed="13.90" length="0.10" width="13.00" shape="1220.20,188.62 1220.20,188.62"/>
    </edge>
    <edge id=":13_0" function="internal">
        <lane id=":13_0_0" index="0" speed="13.90" length="0.10" width="13.00" shape="988.20,754.02 988.20,754.02"/>
    </edge>
    <edge id=":130_0" function="internal">
        <lane id=":130_0_0" index="0" speed="13.90" length="0.10" width="13.00" shape="1210.75,185.74 1210.75,185.74"/>
    </edge>
    <edge id=":131_0" function="internal">
        <lane id=":131_0_0" index="0" speed="13.90" length="0.10" width="13.00" shape="1201.31,182.85 1201.31,182.85"/>
    </edge>
    <edge id=":132_0" function="internal">
        <lane id=":132_0_0" index="0" speed="13.90" length="0.10" width="13.00" shape="1191.86,179.96 1191.86,179.96"/>
    </edge>
    <edge id=":133_0" function="internal">
        <lane id=":133_0_0" index="0" speed="13.90" length="0.10" width="13.00" shape="1182.42,177.07 1182.42,177.07"/>
    </edge>
    <edge id=":134_0" function="internal">
        <lane id=":134_0_0" index="0" speed="13.90" length="0.10" width="13.00" shape="1172.97,174.18 1172.97,174.18"/>
    </edge>
    <edge id=":135_0" function="internal">
        <lane id=":135_0_0" index="0" speed="13.90" length="0.10" width="13.00" shape="1163.53,171.30 1163.53,171.30"/>
    </edge>
    <edge id=":136_0" function="internal">
        <lane id=":136_0_0" index="0" speed="13.90" length="0.10" width="13.00" shape="1154.08,168.41 1154.08,168.41"/>
    </edge>
    <edge id=":137_0" function="internal">
        <lane id=":137_0_0" index="0" speed="13.90" length="0.10" width="13.00" shape="1144.64,165.52 1144.64,165.52"/>
    </edge>
    <edge id=":138_0" function="internal">
        <lane id=":138_0_0" index="0" speed="13.90" length="0.10" width="13.00" shape="1135.19,162.63 1135.19,162.63"/>
    </edge>
    <edge id=":139_0" function="internal">
        <lane id=":139_0_0" index="0" speed="13.90" length="0.10" width="13.00" shape="1125.75,159.75 1125.75,159.75"/>
    </edge>
    <edge id=":14_0" function="internal">
        <lane id=":14_0_0" index="0" speed="13.90" length="0.10" width="13.00" shape="997.57,754.02 997.57,754.02"/>
    </edge>
    <edge id=":140_0" function="internal">
        <lane id=":140_0_0" index="0" speed="13.90" length="0.10" width="13.00" shape="1116.30,156.86 1116.30,156.86"/>
    </edge>
    <edge id=":141_0" function="internal">
        <lane id=":141_0_0" index="0" speed="13.90" length="0.10" width="13.00" shape="1106.86,153.97 1106.86,153.97"/>
    </edge>
    <edge id=":142_0" function="internal">
        <lane id=":142_0_0" index="0" speed="13.90" length="0.10" width="13.00" shape="1097.41,151.08 1097.41,151.08"/>
    </edge>
    <edge id=":143_0" function="internal">
        <lane id=":143_0_0" index="0" speed="13.90" length="0.10" width="13.00" shape="1087.97,148.20 1087.97,148.20"/>
    </edge>
    <edge id=":144_0" function="internal">
        <lane id=":144_0_0" index="0" speed="13.90" length="0.27" width="13.00" shape="1078.73,145.37 1078.47,145.30"/>
    </edge>
    <edge id=":145_0" function="internal">
        <lane id=":145_0_0" index="0" speed="13.90" length="0.18" width="13.00" shape="1069.09,142.68 1068.92,142.64"/>
    </edge>
    <edge id=":146_0" function="internal">
        <lane id=":146_0_0" index="0" speed="13.90" length="0.18" width="13.00" shape="1059.45,140.49 1059.27,140.46"/>
    </edge>
    <edge id=":147_0" function="internal">
        <lane id=":147_0_0" index="0" speed="13.90" length="0.18" width="13.00" shape="1049.71,138.79 1049.53,138.76"/>
    </edge>
    <edge id=":148_0" function="internal">
        <lane id=":148_0_0" index="0" speed="13.90" length="0.18" width="13.00" shape="1039.90,137.56 1039.72,137.54"/>
    </edge>
    <edge id=":149_0" function="internal">
        <lane id=":149_0_0" index="0" speed="13.90" length="0.18" width="13.00" shape="1030.03,136.83 1029.85,136.82"/>
    </edge>
    <edge id=":15_0" function="internal">
        <lane id=":15_0_0" index="0" speed="13.90" length="0.10" width="13.00" shape="1006.95,754.02 1006.95,754.02"/>
    </edge>
    <edge id=":150_0" function="internal">
        <lane id=":150_0_0" index="0" speed="13.90" length="0.27" width="13.00" shape="1020.12,136.58 1019.85,136.57"/>
    </edge>
    <edge id=":151_0" function="internal">
        <lane id=":151_0_0" index="0" speed="13.90" length="0.10" width="13.00" shape="1010.69,136.57 1010.69,136.57"/>
    </edge>
    <edge id=":152_0" function="internal">
        <lane id=":152_0_0" index="0" speed="13.90" length="0.10" width="13.00" shape="1001.32,136.57 1001.32,136.57"/>
    </edge>
    <edge id=":153_0" function="internal">
        <lane id=":153_0_0" index="0" speed="13.90" length="0.10" width="13.00" shape="991.94,136.57 991.94,136.57"/>
    </edge>
    <edge id=":154_0" function="internal">
        <lane id=":154_0_0" index="0" speed="13.90" length="0.10" width="13.00" shape="982.57,136.57 982.57,136.57"/>
    </edge>
    <edge id=":155_0" function="internal">
        <lane id=":155_0_0" index="0" speed="13.90" length="0.10" width="13.00" shape="973.19,136.57 973.19,136.57"/>
    </edge>
    <edge id=":156_0" function="internal">
        <lane id=":156_0_0" index="0" speed="13.90" length="0.10" width="13.00" shape="963.81,136.57 963.81,136.57"/>
    </edge>
    <edge id=":157_0" function="internal">
        <lane id=":157_0_0" index="0" speed="13.90" length="0.10" width="13.00" shape="954.44,136.57 954.44,136.57"/>
    </edge>
    <edge id=":158_0" function="internal">
        <lane id=":158_0_0" index="0" speed="13.90" length="0.10" width="13.00" shape="945.06,136.57 945.06,136.57"/>
    </edge>
    <edge id=":159_0" function="internal">
        <lane id=":159_0_0" index="0" speed="13.90" length="0.10" width="13.00" shape="935.69,136.57 935.69,136.57"/>
    </edge>
    <edge id=":16_0" function="internal">
        <lane id=":16_0_0" index="0" speed="13.90" length="0.10" width="13.00" shape="1016.32,754.02 1016.32,754.02"/>
    </edge>
    <edge id=":160_0" function="internal">
        <lane id=":160_0_0" index="0" speed="13.90" length="0.10" width="13.00" shape="926.31,136.57 926.31,136.57"/>
    </edge>
    <edge id=":161_0" function="internal">
        <lane id=":161_0_0" index="0" speed="13.90" length="0.10" width="13.00" shape="916.94,136.57 916.94,136.57"/>
    </edge>
    <edge id=":162_0" function="internal">
        <lane id=":162_0_0" index="0" speed="13.90" length="0.10" width="13.00" shape="907.56,136.57 907.56,136.57"/>
    </edge>
    <edge id=":163_0" function="internal">
        <lane id=":163_0_0" index="0" speed="13.90" length="0.10" width="13.00" shape="898.19,136.57 898.19,136.57"/>
    </edge>
    <edge id=":164_0" function="internal">
        <lane id=":164_0_0" index="0" speed="13.90" length="0.10" width="13.00" shape="888.81,136.57 888.81,136.57"/>
    </edge>
    <edge id=":165_0" function="internal">
        <lane id=":165_0_0" index="0" speed="13.90" length="0.10" width="13.00" shape="879.44,136.57 879.44,136.57"/>
    </edge>
    <edge id=":166_0" function="internal">
        <lane id=":166_0_0" index="0" speed="13.90" length="0.73" width="13.00" shape="870.80,136.57 870.58,136.57 870.43,136.58 870.28,136.59 870.07,136.61"/>
    </edge>
    <edge id=":167_0" function="internal">
        <lane id=":167_0_0" index="0" speed="13.90" length="1.46" width="13.00" shape="861.91,137.53 861.48,137.58 861.19,137.63 860.90,137.72 860.49,137.86"/>
    </edge>
    <edge id=":168_0" function="internal">
        <lane id=":168_0_0" index="0" speed="13.90" length="1.46" width="13.00" shape="853.44,140.32 853.03,140.47 852.76,140.58 852.50,140.73 852.13,140.96"/>
    </edge>
    <edge id=":169_0" function="internal">
        <lane id=":169_0_0" index="0" speed="13.90" length="1.46" width="13.00" shape="845.80,144.93 845.44,145.16 845.19,145.34 844.97,145.53 844.66,145.84"/>
    </edge>
    <edge id=":17_0" function="internal">
        <lane id=":17_0_0" index="0" speed="13.90" length="0.10" width="13.00" shape="1025.70,754.02 1025.70,754.02"/>
    </edge>
    <edge id=":170_0" function="internal">
        <lane id=":170_0_0" index="0" speed="13.90" length="1.46" width="13.00" shape="839.38,151.12 839.08,151.43 838.88,151.65 838.70,151.89 838.47,152.26"/>
    </edge>
    <edge id=":171_0" function="internal">
        <lane id=":171_0_0" index="0" speed="13.90" length="1.46" width="13.00" shape="834.50,158.59 834.27,158.95 834.13,159.22 834.01,159.49 833.87,159.90"/>
    </edge>
    <edge id=":172_0" function="internal">
        <lane id=":172_0_0" index="0" speed="13.90" length="1.46" width="13.00" shape="831.40,166.95 831.26,167.36 831.18,167.65 831.12,167.94 831.07,168.37"/>
    </edge>
    <edge id=":173_0" function="internal">
        <lane id=":173_0_0" index="0" speed="13.90" length="0.73" width="13.00" shape="830.15,176.53 830.13,176.74 830.12,176.89 830.11,177.04 830.11,177.25"/>
    </edge>
    <edge id=":174_0" function="internal">
        <lane id=":174_0_0" index="0" speed="13.90" length="0.10" width="13.00" shape="830.11,184.86 830.11,184.86"/>
    </edge>
    <edge id=":175_0" function="internal">
        <lane id=":175_0_0" index="0" speed="13.90" length="0.10" width="13.00" shape="830.11,193.19 830.11,193.19"/>
    </edge>
    <edge id=":176_0" function="internal">
        <lane id=":176_0_0" index="0" speed="13.90" length="0.10" width="13.00" shape="830.11,201.52 830.11,201.52"/>
    </edge>
    <edge id=":177_0" function="internal">
        <lane id=":177_0_0" index="0" speed="13.90" length="0.50" width="13.00" shape="830.11,209.36 830.13,209.85"/>
    </edge>
    <edge id=":178_0" function="internal">
        <lane id=":178_0_0" index="0" speed="13.90" length="0.99" width="13.00" shape="830.71,217.46 830.74,217.76 830.76,217.96 830.80,218.16 830.86,218.44"/>
    </edge>
    <edge id=":179_0" function="internal">
        <lane id=":179_0_0" index="0" speed="13.90" length="0.99" width="13.00" shape="832.48,225.39 832.55,225.67 832.61,225.87 832.67,226.06 832.78,226.33"/>
    </edge>
    <edge id=":18_0" function="internal">
        <lane id=":18_0_0" index="0" speed="13.90" length="0.10" width="13.00" shape="1034.96,754.02 1034.96,754.02"/>
    </edge>
    <edge id=":180_0" function="internal">
        <lane id=":180_0_0" index="0" speed="13.90" length="0.99" width="13.00" shape="835.44,232.95 835.55,233.22 835.63,233.41 835.73,233.59 835.88,233.84"/>
    </edge>
    <edge id=":181_0" function="internal">
        <lane id=":181_0_0" index="0" speed="13.90" length="0.50" width="13.00" shape="839.77,240.41 840.04,240.82"/>
    </edge>
    <edge id=":182_0" function="internal">
        <lane id=":182_0_0" index="0" speed="13.90" length="0.10" width="13.00" shape="844.53,247.24 844.53,247.24"/>
    </edge>
    <edge id=":183_0" function="internal">
        <lane id=":183_0_0" index="0" speed="13.90" length="0.10" width="13.00" shape="849.31,254.07 849.31,254.07"/>
    </edge>
    <edge id=":184_0" function="internal">
        <lane id=":184_0_0" index="0" speed="13.90" length="0.10" width="13.00" shape="854.09,260.90 854.09,260.90"/>
    </edge>
    <edge id=":185_0" function="internal">
        <lane id=":185_0_0" index="0" speed="13.90" length="0.63" width="13.00" shape="858.87,267.72 858.98,267.88 859.05,267.98 859.11,268.09 859.20,268.25"/>
    </edge>
    <edge id=":186_0" function="internal">
        <lane id=":186_0_0" index="0" speed="13.90" length="1.25" width="13.00" shape="863.00,274.96 863.18,275.28 863.29,275.51 863.38,275.75 863.50,276.10"/>
    </edge>
    <edge id=":187_0" function="internal">
        <lane id=":187_0_0" index="0" speed="13.90" length="1.25" width="13.00" shape="865.95,283.41 866.07,283.76 866.13,284.01 866.18,284.26 866.23,284.62"/>
    </edge>
    <edge id=":188_0" function="internal">
        <lane id=":188_0_0" index="0" speed="13.90" length="1.25" width="13.00" shape="867.24,292.26 867.28,292.63 867.30,292.89 867.30,293.14 867.28,293.51"/>
    </edge>
    <edge id=":189_0" function="internal">
        <lane id=":189_0_0" index="0" speed="13.90" length="1.25" width="13.00" shape="866.81,301.21 866.79,301.58 866.76,301.83 866.71,302.08 866.62,302.44"/>
    </edge>
    <edge id=":19_0" function="internal">
        <lane id=":19_0_0" index="0" speed="13.90" length="0.10" width="13.00" shape="1044.22,754.02 1044.22,754.02"/>
    </edge>
    <edge id=":190_0" function="internal">
        <lane id=":190_0_0" index="0" speed="13.90" length="1.25" width="13.00" shape="864.69,309.90 864.59,310.26 864.51,310.50 864.42,310.74 864.26,311.07"/>
    </edge>
    <edge id=":191_0" function="internal">
        <lane id=":191_0_0" index="0" speed="13.90" length="1.25" width="13.00" shape="860.94,318.03 860.78,318.36 860.66,318.59 860.52,318.80 860.30,319.10"/>
    </edge>
    <edge id=":192_0" function="internal">
        <lane id=":192_0_0" index="0" speed="13.90" length="0.62" width="13.00" shape="855.71,325.29 855.60,325.44 855.53,325.54 855.44,325.64 855.32,325.78"/>
    </edge>
    <edge id=":193_0" function="internal">
        <lane id=":193_0_0" index="0" speed="13.90" length="0.10" width="13.00" shape="849.74,331.97 849.74,331.97"/>
    </edge>
    <edge id=":194_0" function="internal">
        <lane id=":194_0_0" index="0" speed="13.90" length="0.10" width="13.00" shape="844.17,338.16 844.17,338.16"/>
    </edge>
    <edge id=":195_0" function="internal">
        <lane id=":195_0_0" index="0" speed="13.90" length="0.10" width="13.00" shape="838.59,344.36 838.59,344.36"/>
    </edge>
    <edge id=":196_0" function="internal">
        <lane id=":196_0_0" index="0" speed="13.90" length="0.82" width="13.00" shape="833.01,350.55 832.85,350.73 832.73,350.85 832.61,350.97 832.42,351.13"/>
    </edge>
    <edge id=":197_0" function="internal">
        <lane id=":197_0_0" index="0" speed="13.90" length="1.65" width="13.00" shape="827.29,355.55 826.91,355.87 826.65,356.07 826.36,356.24 825.92,356.46"/>
    </edge>
    <edge id=":198_0" function="internal">
        <lane id=":198_0_0" index="0" speed="13.90" length="1.65" width="13.00" shape="819.83,359.46 819.39,359.67 819.08,359.80 818.76,359.89 818.28,359.99"/>
    </edge>
    <edge id=":199_0" function="internal">
        <lane id=":199_0_0" index="0" speed="13.90" length="1.65" width="13.00" shape="811.64,361.38 811.16,361.47 810.83,361.52 810.49,361.52 810.00,361.50"/>
    </edge>
    <edge id=":2_0" function="internal">
        <lane id=":2_0_0" index="0" speed="13.90" length="0.10" width="13.00" shape="885.07,754.02 885.07,754.02"/>
    </edge>
    <edge id=":20_0" function="internal">
        <lane id=":20_0_0" index="0" speed="13.90" length="0.10" width="13.00" shape="1053.48,754.02 1053.48,754.02"/>
    </edge>
    <edge id=":200_0" function="internal">
        <lane id=":200_0_0" index="0" speed="13.90" length="0.82" width="13.00" shape="803.23,361.18 802.98,361.17 802.82,361.15 802.65,361.13 802.41,361.09"/>
    </edge>
    <edge id=":201_0" function="internal">
        <lane id=":201_0_0" index="0" speed="13.90" length="0.10" width="13.00" shape="794.20,359.64 794.20,359.64"/>
    </edge>
    <edge id=":202_0" function="internal">
        <lane id=":202_0_0" index="0" speed="13.90" length="0.10" width="13.00" shape="785.99,358.19 785.99,358.19"/>
    </edge>
    <edge id=":203_0" function="internal">
        <lane id=":203_0_0" index="0" speed="13.90" length="0.10" width="13.00" shape="777.79,356.75 777.79,356.75"/>
    </edge>
    <edge id=":204_0" function="internal">
        <lane id=":204_0_0" index="0" speed="13.90" length="0.10" width="13.00" shape="769.58,355.30 769.58,355.30"/>
    </edge>
    <edge id=":205_0" function="internal">
        <lane id=":205_0_0" index="0" speed="13.90" length="0.10" width="13.00" shape="761.37,353.85 761.37,353.85"/>
    </edge>
    <edge id=":206_0" function="internal">
        <lane id=":206_0_0" index="0" speed="13.90" length="0.10" width="13.00" shape="753.17,352.41 753.17,352.41"/>
    </edge>
    <edge id=":207_0" function="internal">
        <lane id=":207_0_0" index="0" speed="13.90" length="0.10" width="13.00" shape="744.96,350.96 744.96,350.96"/>
    </edge>
    <edge id=":208_0" function="internal">
        <lane id=":208_0_0" index="0" speed="13.90" length="0.10" width="13.00" shape="736.75,349.51 736.75,349.51"/>
    </edge>
    <edge id=":209_0" function="internal">
        <lane id=":209_0_0" index="0" speed="13.90" length="0.10" width="13.00" shape="728.55,348.06 728.55,348.06"/>
    </edge>
    <edge id=":21_0" function="internal">
        <lane id=":21_0_0" index="0" speed="13.90" length="0.10" width="13.00" shape="1062.74,754.02 1062.74,754.02"/>
    </edge>
    <edge id=":210_0" function="internal">
        <lane id=":210_0_0" index="0" speed="13.90" length="0.10" width="13.00" shape="720.34,346.62 720.34,346.62"/>
    </edge>
    <edge id=":211_0" function="internal">
        <lane id=":211_0_0" index="0" speed="13.90" length="0.10" width="13.00" shape="712.13,345.17 712.13,345.17"/>
    </edge>
    <edge id=":212_0" function="internal">
        <lane id=":212_0_0" index="0" speed="13.90" length="0.23" width="13.00" shape="703.93,343.72 703.70,343.68"/>
    </edge>
    <edge id=":213_0" function="internal">
        <lane id=":213_0_0" index="0" speed="13.90" length="0.46" width="13.00" shape="694.84,341.79 694.39,341.68"/>
    </edge>
    <edge id=":214_0" function="internal">
        <lane id=":214_0_0" index="0" speed="13.90" length="0.46" width="13.00" shape="685.69,339.16 685.25,339.01"/>
    </edge>
    <edge id=":215_0" function="internal">
        <lane id=":215_0_0" index="0" speed="13.90" length="0.46" width="13.00" shape="676.75,335.88 676.32,335.71"/>
    </edge>
    <edge id=":216_0" function="internal">
        <lane id=":216_0_0" index="0" speed="13.90" length="0.46" width="13.00" shape="668.07,331.98 667.65,331.77"/>
    </edge>
    <edge id=":217_0" function="internal">
        <lane id=":217_0_0" index="0" speed="13.90" length="0.46" width="13.00" shape="659.68,327.46 659.28,327.23"/>
    </edge>
    <edge id=":218_0" function="internal">
        <lane id=":218_0_0" index="0" speed="13.90" length="0.46" width="13.00" shape="651.65,322.36 651.26,322.10"/>
    </edge>
    <edge id=":219_0" function="internal">
        <lane id=":219_0_0" index="0" speed="13.90" length="0.46" width="13.00" shape="643.99,316.70 643.63,316.41"/>
    </edge>
    <edge id=":22_0" function="internal">
        <lane id=":22_0_0" index="0" speed="13.90" length="0.10" width="13.00" shape="1072.00,754.02 1072.00,754.02"/>
    </edge>
    <edge id=":220_0" function="internal">
        <lane id=":220_0_0" index="0" speed="13.90" length="0.46" width="13.00" shape="636.76,310.50 636.42,310.19"/>
    </edge>
    <edge id=":221_0" function="internal">
        <lane id=":221_0_0" index="0" speed="13.90" length="0.46" width="13.00" shape="629.99,303.81 629.67,303.47"/>
    </edge>
    <edge id=":222_0" function="internal">
        <lane id=":222_0_0" index="0" speed="13.90" length="0.46" width="13.00" shape="623.71,296.65 623.42,296.29"/>
    </edge>
    <edge id=":223_0" function="internal">
        <lane id=":223_0_0" index="0" speed="13.90" length="0.23" width="13.00" shape="617.97,289.06 617.83,288.87"/>
    </edge>
    <edge id=":224_0" function="internal">
        <lane id=":224_0_0" index="0" speed="13.90" length="0.10" width="13.00" shape="612.20,280.84 612.20,280.84"/>
    </edge>
    <edge id=":225_0" function="internal">
        <lane id=":225_0_0" index="0" speed="13.90" length="0.10" width="13.00" shape="606.58,272.81 606.58,272.81"/>
    </edge>
    <edge id=":226_0" function="internal">
        <lane id=":226_0_0" index="0" speed="13.90" length="0.10" width="13.00" shape="600.96,264.78 600.96,264.78"/>
    </edge>
    <edge id=":227_0" function="internal">
        <lane id=":227_0_0" index="0" speed="13.90" length="0.10" width="13.00" shape="595.33,256.75 595.34,256.75"/>
    </edge>
    <edge id=":228_0" function="internal">
        <lane id=":228_0_0" index="0" speed="13.90" length="0.10" width="13.00" shape="589.71,248.72 589.71,248.72"/>
    </edge>
    <edge id=":229_0" function="internal">
        <lane id=":229_0_0" index="0" speed="13.90" length="0.10" width="13.00" shape="584.09,240.69 584.09,240.69"/>
    </edge>
    <edge id=":23_0" function="internal">
        <lane id=":23_0_0" index="0" speed="13.90" length="0.10" width="13.00" shape="1081.26,754.02 1081.26,754.02"/>
    </edge>
    <edge id=":230_0" function="internal">
        <lane id=":230_0_0" index="0" speed="13.90" length="0.10" width="13.00" shape="578.46,232.65 578.47,232.66"/>
    </edge>
    <edge id=":231_0" function="internal">
        <lane id=":231_0_0" index="0" speed="13.90" length="0.10" width="13.00" shape="572.84,224.62 572.84,224.62"/>
    </edge>
    <edge id=":232_0" function="internal">
        <lane id=":232_0_0" index="0" speed="13.90" length="0.10" width="13.00" shape="567.22,216.59 567.22,216.59"/>
    </edge>
    <edge id=":233_0" function="internal">
        <lane id=":233_0_0" index="0" speed="13.90" length="0.10" width="13.00" shape="561.59,208.56 561.59,208.56"/>
    </edge>
    <edge id=":234_0" function="internal">
        <lane id=":234_0_0" index="0" speed="13.90" length="0.10" width="13.00" shape="555.97,200.53 555.97,200.53"/>
    </edge>
    <edge id=":235_0" function="internal">
        <lane id=":235_0_0" index="0" speed="13.90" length="0.10" width="13.00" shape="550.35,192.50 550.35,192.50"/>
    </edge>
    <edge id=":236_0" function="internal">
        <lane id=":236_0_0" index="0" speed="13.90" length="0.10" width="13.00" shape="544.72,184.47 544.72,184.47"/>
    </edge>
    <edge id=":237_0" function="internal">
        <lane id=":237_0_0" index="0" speed="13.90" length="0.10" width="13.00" shape="539.10,176.44 539.10,176.44"/>
    </edge>
    <edge id=":238_0" function="internal">
        <lane id=":238_0_0" index="0" speed="13.90" length="0.10" width="13.00" shape="533.48,168.41 533.48,168.41"/>
    </edge>
    <edge id=":239_0" function="internal">
        <lane id=":239_0_0" index="0" speed="13.90" length="0.10" width="13.00" shape="527.85,160.38 527.85,160.38"/>
    </edge>
    <edge id=":24_0" function="internal">
        <lane id=":24_0_0" index="0" speed="13.90" length="0.10" width="13.00" shape="1090.51,754.02 1090.51,754.02"/>
    </edge>
    <edge id=":240_0" function="internal">
        <lane id=":240_0_0" index="0" speed="13.90" length="0.27" width="13.00" shape="522.36,152.52 522.20,152.30"/>
    </edge>
    <edge id=":241_0" function="internal">
        <lane id=":241_0_0" index="0" speed="13.90" length="0.18" width="13.00" shape="516.49,144.56 516.38,144.41"/>
    </edge>
    <edge id=":242_0" function="internal">
        <lane id=":242_0_0" index="0" speed="13.90" length="0.18" width="13.00" shape="510.31,136.98 510.20,136.84"/>
    </edge>
    <edge id=":243_0" function="internal">
        <lane id=":243_0_0" index="0" speed="13.90" length="0.18" width="13.00" shape="503.78,129.72 503.66,129.59"/>
    </edge>
    <edge id=":244_0" function="internal">