<?xml version="1.0" encoding="UTF-8"?>
<edges xmlns:xsi="http://www.w3.org/2001/XMLSchema-instance" xsi:noNamespaceSchemaLocation="http://sumo.sf.net/xsd/edges_file.xsd">
<edge from="0" id="0to1" to="1" length="9.37900191918" width="13"/>
<edge from="1" id="1to2" to="2" length="9.375" width="13"/>
<edge from="2" id="2to3" to="3" length="9.375" width="13"/>
<edge from="3" id="3to4" to="4" length="9.375" width="13"/>
<edge from="4" id="4to5" to="5" length="9.375" width="13"/>
<edge from="5" id="5to6" to="6" length="9.375" width="13"/>
<edge from="6" id="6to7" to="7" length="9.375" width="13"/>
<edge from="7" id="7to8" to="8" length="9.375" width="13"/>
<edge from="8" id="8to9" to="9" length="9.375" width="13"/>
<edge from="9" id="9to10" to="10" length="9.375" width="13"/>
<edge from="10" id="10to11" to="11" length="9.375" width="13"/>
<edge from="11" id="11to12" to="12" length="9.37" width="13"/>
<edge from="12" id="12to13" to="13" length="9.38" width="13"/>
<edge from="13" id="13to14" to="14" length="9.37" width="13"/>
<edge from="14" id="14to15" to="15" length="9.38" width="13"/>
<edge from="15" id="15to16" to="16" length="9.37" width="13"/>
<edge from="16" id="16to17" to="17" length="9.38" width="13"/>
<edge from="17" id="17to18" to="18" length="9.26" width="13"/>
<edge from="18" id="18to19" to="19" length="9.26" width="13"/>
<edge from="19" id="19to20" to="20" length="9.26" width="13"/>
<edge from="20" id="20to21" to="21" length="9.26" width="13"/>
<edge from="21" id="21to22" to="22" length="9.26" width="13"/>
<edge from="22" id="22to23" to="23" length="9.26" width="13"/>
<edge from="23" id="23to24" to="24" length="9.25" width="13"/>
<edge from="24" id="24to25" to="25" length="9.26" width="13"/>
<edge from="25" id="25to26" to="26" length="9.26" width="13"/>
<edge from="26" id="26to27" to="27" length="8.93663387412" width="13"/>
<edge from="27" id="27to28" to="28" length="8.92965755222" width="13"/>
<edge from="28" id="28to29" to="29" length="8.93366492544" width="13"/>
<edge from="29" id="29to30" to="30" length="8.93400895455" width="13"/>
<edge from="30" id="30to31" to="31" length="9.52506608901" width="13"/>
<edge from="31" id="31to32" to="32" length="9.52459663188" width="13"/>
<edge from="32" id="32to33" to="33" length="9.52459663188" width="13"/>
<edge from="33" id="33to34" to="34" length="9.52459663188" width="13"/>
<edge from="34" id="34to35" to="35" length="9.52459663188" width="13"/>
<edge from="35" id="35to36" to="36" length="9.52459663188" width="13"/>
<edge from="36" id="36to37" to="37" length="9.52459663188" width="13"/>
<edge from="37" id="37to38" to="38" length="9.51623791212" width="13"/>
<edge from="38" id="38to39" to="39" length="9.52459663188" width="13"/>
<edge from="39" id="39to40" to="40" length="9.52459663188" width="13"/>
<edge from="40" id="40to41" to="41" length="9.52459663188" width="13"/>
<edge from="41" id="41to42" to="42" length="9.52459663188" width="13"/>
<edge from="42" id="42to43" to="43" length="9.52459663188" width="13"/>
<edge from="43" id="43to44" to="44" length="9.52506608901" width="13"/>
<edge from="44" id="44to45" to="45" length="9.89086871817" width="13"/>
<edge from="45" id="45to46" to="46" length="9.88384282554" width="13"/>
<edge from="46" id="46to47" to="47" length="9.89091381016" width="13"/>
<edge from="47" id="47to48" to="48" length="9.89223781558" width="13"/>
<edge from="48" id="48to49" to="49" length="9.88560589949" width="13"/>
<edge from="49" id="49to50" to="50" length="9.88881393292" width="13"/>
<edge from="50" id="50to51" to="51" length="9.89032840709" width="13"/>
<edge from="51" id="51to52" to="52" length="9.88972138131" width="13"/>
<edge from="52" id="52to53" to="53" length="8.746" width="13"/>
<edge from="53" id="53to54" to="54" length="8.746" width="13"/>
<edge from="54" id="54to55" to="55" length="8.746" width="13"/>
<edge from="55" id="55to56" to="56" length="8.746" width="13"/>
<edge from="56" id="56to57" to="57" length="8.746" width="13"/>
<edge from="57" id="57to58" to="58" length="8.746" width="13"/>
<edge from="58" id="58to59" to="59" length="8.746" width="13"/>
<edge from="59" id="59to60" to="60" length="8.00057429189" width="13"/>
<edge from="60" id="60to61" to="61" length="7.99958523925" width="13"/>
<edge from="61" id="61to62" to="62" length="8.00395958261" width="13"/>
<edge from="62" id="62to63" to="63" length="7.99976880916" width="13"/>
<edge from="63" id="63to64" to="64" length="8.00036024189" width="13"/>
<edge from="64" id="64to65" to="65" length="8.00304966872" width="13"/>
<edge from="65" id="65to66" to="66" length="8.00151235705" width="13"/>
<edge from="66" id="66to67" to="67" length="7.99745559538" width="13"/>
<edge from="67" id="67to68" to="68" length="9.08978267067" width="13"/>
<edge from="68" id="68to69" to="69" length="9.09853004611" width="13"/>
<edge from="69" id="69to70" to="70" length="9.09026754282" width="13"/>
<edge from="70" id="70to71" to="71" length="9.08978267067" width="13"/>
<edge from="71" id="71to72" to="72" length="9.08978267067" width="13"/>
<edge from="72" id="72to73" to="73" length="9.09026754282" width="13"/>
<edge from="73" id="73to74" to="74" length="9.08978267067" width="13"/>
<edge from="74" id="74to75" to="75" length="9.08978267067" width="13"/>
<edge from="75" id="75to76" to="76" length="9.09026754282" width="13"/>
<edge from="76" id="76to77" to="77" length="9.08978267067" width="13"/>
<edge from="77" id="77to78" to="78" length="9.09853004611" width="13"/>
<edge from="78" id="78to79" to="79" length="9.51568830931" width="13"/>
<edge from="79" id="79to80" to="80" length="9.5239481834" width="13"/>
<edge from="80" id="80to81" to="81" length="9.5239481834" width="13"/>
<edge from="81" id="81to82" to="82" length="9.5239481834" width="13"/>
<edge from="82" id="82to83" to="83" length="9.5244330015" width="13"/>
<edge from="83" id="83to84" to="84" length="9.5239481834" width="13"/>
<edge from="84" id="84to85" to="85" length="9.5239481834" width="13"/>
<edge from="85" id="85to86" to="86" length="10.4323882213" width="13"/>
<edge from="86" id="86to87" to="87" length="10.4278485317" width="13"/>
<edge from="87" id="87to88" to="88" length="10.4296090051" width="13"/>
<edge from="88" id="88to89" to="89" length="10.4286516866" width="13"/>
<edge from="89" id="89to90" to="90" length="10.4314464961" width="13"/>
<edge from="90" id="90to91" to="91" length="10.4291171247" width="13"/>
<edge from="91" id="91to92" to="92" length="10.4305764462" width="13"/>
<edge from="92" id="92to93" to="93" length="10.428066024" width="13"/>
<edge from="93" id="93to94" to="94" length="10.4288246701" width="13"/>
<edge from="94" id="94to95" to="95" length="10.434376311" width="13"/>
<edge from="95" id="95to96" to="96" length="10.4258143087" width="13"/>
<edge from="96" id="96to97" to="97" length="8.57264696579" width="13"/>
<edge from="97" id="97to98" to="98" length="8.57199095893" width="13"/>
<edge from="98" id="98to99" to="99" length="8.57199095893" width="13"/>
<edge from="99" id="99to100" to="100" length="8.57264696579" width="13"/>
<edge from="100" id="100to101" to="101" length="8.57199095893" width="13"/>
<edge from="101" id="101to102" to="102" length="8.56444563296" width="13"/>
<edge from="102" id="102to103" to="103" length="8.57264696579" width="13"/>
<edge from="103" id="103to104" to="104" length="9.16812936209" width="13"/>
<edge from="104" id="104to105" to="105" length="9.16812936209" width="13"/>
<edge from="105" id="105to106" to="106" length="9.16812936209" width="13"/>
<edge from="106" id="106to107" to="107" length="9.1674734251" width="13"/>
<edge from="107" id="107to108" to="108" length="9.16058382419" width="13"/>
<edge from="108" id="108to109" to="109" length="9.16812936209" width="13"/>
<edge from="109" id="109to110" to="110" length="9.16812936209" width="13"/>
<edge from="110" id="110to111" to="111" length="9.16812936209" width="13"/>
<edge from="111" id="111to112" to="112" length="9.75605268538" width="13"/>
<edge from="112" id="112to113" to="113" length="9.76467106461" width="13"/>
<edge from="113" id="113to114" to="114" length="9.75450029474" width="13"/>
<edge from="114" id="114to115" to="115" length="9.76384268616" width="13"/>
<edge from="115" id="115to116" to="116" length="9.76519682341" width="13"/>
<edge from="116" id="116to117" to="117" length="9.75233736086" width="13"/>
<edge from="117" id="117to118" to="118" length="9.88115727028" width="13"/>
<edge from="118" id="118to119" to="119" length="9.87188654716" width="13"/>
<edge from="119" id="119to120" to="120" length="9.88144948881" width="13"/>
<edge from="120" id="120to121" to="121" length="9.87159404554" width="13"/>
<edge from="121" id="121to122" to="122" length="9.88144948881" width="13"/>
<edge from="122" id="122to123" to="123" length="9.87188654716" width="13"/>
<edge from="123" id="123to124" to="124" length="9.88115727028" width="13"/>
<edge from="124" id="124to125" to="125" length="9.87188654716" width="13"/>
<edge from="125" id="125to126" to="126" length="9.88115727028" width="13"/>
<edge from="126" id="126to127" to="127" length="9.87188654716" width="13"/>
<edge from="127" id="127to128" to="128" length="9.88144948881" width="13"/>
<edge from="128" id="128to129" to="129" length="9.87159404554" width="13"/>
<edge from="129" id="129to130" to="130" length="9.88144948881" width="13"/>
<edge from="130" id="130to131" to="131" length="9.87188654716" width="13"/>
<edge from="131" id="131to132" to="132" length="9.88115727028" width="13"/>
<edge from="132" id="132to133" to="133" length="9.87188654716" width="13"/>
<edge from="133" id="133to134" to="134" length="9.88144948881" width="13"/>
<edge from="134" id="134to135" to="135" length="9.87159404554" width="13"/>
<edge from="135" id="135to136" to="136" length="9.88144948881" width="13"/>
<edge from="136" id="136to137" to="137" length="9.87159404554" width="13"/>
<edge from="137" id="137to138" to="138" length="9.88144948881" width="13"/>
<edge from="138" id="138to139" to="139" length="9.87188654716" width="13"/>
<edge from="139" id="139to140" to="140" length="9.88115727028" width="13"/>
<edge from="140" id="140to141" to="141" length="9.87188654716" width="13"/>
<edge from="141" id="141to142" to="142" length="9.88144948881" width="13"/>
<edge from="142" id="142to143" to="143" length="9.87159404554" width="13"/>
<edge from="143" id="143to144" to="144" length="9.88144948881" width="13"/>
<edge from="144" id="144to145" to="145" length="10.2055352138" width="13"/>
<edge from="145" id="145to146" to="146" length="10.2116408574" width="13"/>
<edge from="146" id="146to147" to="147" length="10.21262361" width="13"/>
<edge from="147" id="147to148" to="148" length="10.2079371569" width="13"/>
<edge from="148" id="148to149" to="149" length="10.2180054805" width="13"/>
<edge from="149" id="149to150" to="150" length="10.2031372136" width="13"/>
<edge from="150" id="150to151" to="151" length="9.38" width="13"/>
<edge from="151" id="151to152" to="152" length="9.37" width="13"/>
<edge from="152" id="152to153" to="153" length="9.38" width="13"/>
<edge from="153" id="153to154" to="154" length="9.37" width="13"/>
<edge from="154" id="154to155" to="155" length="9.378" width="13"/>
<edge from="155" id="155to156" to="156" length="9.375" width="13"/>
<edge from="156" id="156to157" to="157" length="9.375" width="13"/>
<edge from="157" id="157to158" to="158" length="9.375" width="13"/>
<edge from="158" id="158to159" to="159" length="9.375" width="13"/>
<edge from="159" id="159to160" to="160" length="9.375" width="13"/>
<edge from="160" id="160to161" to="161" length="9.375" width="13"/>
<edge from="161" id="161to162" to="162" length="9.375" width="13"/>
<edge from="162" id="162to163" to="163" length="9.375" width="13"/>
<edge from="163" id="163to164" to="164" length="9.375" width="13"/>
<edge from="164" id="164to165" to="165" length="9.375" width="13"/>
<edge from="165" id="165to166" to="166" length="9.375" width="13"/>
<edge from="166" id="166to167" to="167" length="10.4124908163" width="13"/>
<edge from="167" id="167to168" to="168" length="10.4132589519" width="13"/>
<edge from="168" id="168to169" to="169" length="10.4121782543" width="13"/>
<edge from="169" id="169to170" to="170" length="10.4128544598" width="13"/>
<edge from="170" id="170to171" to="171" length="10.4130249688" width="13"/>
<edge from="171" id="171to172" to="172" length="10.4123150644" width="13"/>
<edge from="172" id="172to173" to="173" length="10.4124908163" width="13"/>
<edge from="173" id="173to174" to="174" length="8.334" width="13"/>
<edge from="174" id="174to175" to="175" length="8.333" width="13"/>
<edge from="175" id="175to176" to="176" length="8.333" width="13"/>
<edge from="176" id="176to177" to="177" length="8.333" width="13"/>
<edge from="177" id="177to178" to="178" length="9.12956871928" width="13"/>
<edge from="178" id="178to179" to="179" length="9.1284954401" width="13"/>
<edge from="179" id="179to180" to="180" length="9.12823323541" width="13"/>
<edge from="180" id="180to181" to="181" length="9.12868150392" width="13"/>
<edge from="181" id="181to182" to="182" length="8.33404637616" width="13"/>
<edge from="182" id="182to183" to="183" length="8.33265365895" width="13"/>
<edge from="183" id="183to184" to="184" length="8.33322722599" width="13"/>
<edge from="184" id="184to185" to="185" length="8.33322722599" width="13"/>
<edge from="185" id="185to186" to="186" length="7.69990162275" width="13"/>
<edge from="186" id="186to187" to="187" length="7.69983460861" width="13"/>
<edge from="187" id="187to188" to="188" length="7.69900805299" width="13"/>
<edge from="188" id="188to189" to="189" length="7.70041797567" width="13"/>
<edge from="189" id="189to190" to="190" length="7.69905481212" width="13"/>
<edge from="190" id="190to191" to="191" length="7.69920943994" width="13"/>
<edge from="191" id="191to192" to="192" length="7.70016233595" width="13"/>
<edge from="192" id="192to193" to="193" length="8.33336816659" width="13"/>
<edge from="193" id="193to194" to="194" length="8.33336816659" width="13"/>
<edge from="194" id="194to195" to="195" length="8.33262503657" width="13"/>
<edge from="195" id="195to196" to="196" length="8.33336816659" width="13"/>
<edge from="196" id="196to197" to="197" length="6.7729168015" width="13"/>
<edge from="197" id="197to198" to="198" length="6.77270197189" width="13"/>
<edge from="198" id="198to199" to="199" length="6.77287250729" width="13"/>
<edge from="199" id="199to200" to="200" length="6.77280222655" width="13"/>
<edge from="200" id="200to201" to="201" length="8.33358614283" width="13"/>
<edge from="201" id="201to202" to="202" length="8.33358614283" width="13"/>
<edge from="202" id="202to203" to="203" length="8.33260133452" width="13"/>
<edge from="203" id="203to204" to="204" length="8.33358614283" width="13"/>
<edge from="204" id="204to205" to="205" length="8.33358614283" width="13"/>
<edge from="205" id="205to206" to="206" length="8.33260133452" width="13"/>
<edge from="206" id="206to207" to="207" length="8.33358614283" width="13"/>
<edge from="207" id="207to208" to="208" length="8.33358614283" width="13"/>
<edge from="208" id="208to209" to="209" length="8.33358614283" width="13"/>
<edge from="209" id="209to210" to="210" length="8.33277504797" width="13"/>
<edge from="210" id="210to211" to="211" length="8.33358614283" width="13"/>
<edge from="211" id="211to212" to="212" length="8.33358614283" width="13"/>
<edge from="212" id="212to213" to="213" length="9.05326664801" width="13"/>
<edge from="213" id="213to214" to="214" length="9.05458226535" width="13"/>
<edge from="214" id="214to215" to="215" length="9.05362833344" width="13"/>
<edge from="215" id="215to216" to="216" length="9.05411425817" width="13"/>
<edge from="216" id="216to217" to="217" length="9.05451047821" width="13"/>
<edge from="217" id="217to218" to="218" length="9.05356239278" width="13"/>
<edge from="218" id="218to219" to="219" length="9.05350595074" width="13"/>
<edge from="219" id="219to220" to="220" length="9.05403556432" width="13"/>
<edge from="220" id="220to221" to="221" length="9.05457414791" width="13"/>
<edge from="221" id="221to222" to="222" length="9.05387745665" width="13"/>
<edge from="222" id="222to223" to="223" length="9.05404025836" width="13"/>
<edge from="223" id="223to224" to="224" length="9.80358485453" width="13"/>
<edge from="224" id="224to225" to="225" length="9.80383037389" width="13"/>
<edge from="225" id="225to226" to="226" length="9.80383037389" width="13"/>
<edge from="226" id="226to227" to="227" length="9.80383037389" width="13"/>
<edge from="227" id="227to228" to="228" length="9.80440395945" width="13"/>
<edge from="228" id="228to229" to="229" length="9.80383037389" width="13"/>
<edge from="229" id="229to230" to="230" length="9.80383037389" width="13"/>
<edge from="230" id="230to231" to="231" length="9.80440395945" width="13"/>
<edge from="231" id="231to232" to="232" length="9.80383037389" width="13"/>
<edge from="232" id="232to233" to="233" length="9.80383037389" width="13"/>
<edge from="233" id="233to234" to="234" length="9.80301122105" width="13"/>
<edge from="234" id="234to235" to="235" length="9.80440395945" width="13"/>
<edge from="235" id="235to236" to="236" length="9.80383037389" width="13"/>
<edge from="236" id="236to237" to="237" length="9.80383037389" width="13"/>
<edge from="237" id="237to238" to="238" length="9.80440395945" width="13"/>
<edge from="238" id="238to239" to="239" length="9.80383037389" width="13"/>
<edge from="239" id="239to240" to="240" length="9.80383037389" width="13"/>
<edge from="240" id="240to241" to="241" length="10.0907397152" width="13"/>
<edge from="241" id="241to242" to="242" length="10.0903738781" width="13"/>
<edge from="242" id="242to243" to="243" length="10.0901438047" width="13"/>
<edge from="243" id="243to244" to="244" length="10.0904757073" width="13"/>
<edge from="244" id="244to245" to="245" length="10.0909226536" width="13"/>
<edge from="245" id="245to246" to="246" length="10.0906515647" width="13"/>
<edge from="246" id="246to247" to="247" length="10.0896073759" width="13"/>
<edge from="247" id="247to248" to="248" length="10.0912538864" width="13"/>
<edge from="248" id="248to249" to="249" length="10.090376108" width="13"/>
<edge from="249" id="249to250" to="250" length="10.0903288752" width="13"/>
<edge from="250" id="250to251" to="251" length="9.52400008872" width="13"/>
<edge from="251" id="251to252" to="252" length="9.52315448998" width="13"/>
<edge from="252" id="252to253" to="253" length="9.52400008872" width="13"/>
<edge from="253" id="253to254" to="254" length="9.52400008872" width="13"/>
<edge from="254" id="254to255" to="255" length="9.52400008872" width="13"/>
<edge from="255" id="255to256" to="256" length="9.52404548708" width="13"/>
<edge from="256" id="256to257" to="257" length="9.52310908737" width="13"/>
<edge from="257" id="257to258" to="258" length="9.52400008872" width="13"/>
<edge from="258" id="258to259" to="259" length="9.52404548708" width="13"/>
<edge from="259" id="259to260" to="260" length="9.52400008872" width="13"/>
<edge from="260" id="260to261" to="261" length="9.52310908737" width="13"/>
<edge from="261" id="261to262" to="262" length="9.52404548708" width="13"/>
<edge from="262" id="262to263" to="263" length="9.52400008872" width="13"/>
<edge from="263" id="263to264" to="264" length="9.52400008872" width="13"/>
<edge from="264" id="264to265" to="265" length="9.72996543725" width="13"/>
<edge from="265" id="265to266" to="266" length="9.73016114974" width="13"/>
<edge from="266" id="266to267" to="267" length="9.73040173066" width="13"/>
<edge from="267" id="267to268" to="268" length="9.72993688623" width="13"/>
<edge from="268" id="268to269" to="269" length="9.73000839876" width="13"/>
<edge from="269" id="269to270" to="270" length="9.73095437252" width="13"/>
<edge from="270" id="270to271" to="271" length="9.73003649788" width="13"/>
<edge from="271" id="271to272" to="272" length="9.72945495339" width="13"/>
<edge from="272" id="272to273" to="273" length="9.73029700677" width="13"/>
<edge from="273" id="273to274" to="274" length="9.73070205535" width="13"/>
<edge from="274" id="274to275" to="275" length="8.333" width="13"/>
<edge from="275" id="275to276" to="276" length="8.333" width="13"/>
<edge from="276" id="276to277" to="277" length="8.334" width="13"/>
<edge from="277" id="277to278" to="278" length="8.333" width="13"/>
<edge from="278" id="278to279" to="279" length="8.333" width="13"/>
<edge from="279" id="279to280" to="280" length="8.334" width="13"/>
<edge from="280" id="280to281" to="281" length="9.375" width="13"/>
<edge from="281" id="281to282" to="282" length="9.375" width="13"/>
<edge from="282" id="282to283" to="283" length="9.375" width="13"/>
<edge from="283" id="283to284" to="284" length="9.375" width="13"/>
<edge from="284" id="284to285" to="285" length="9.375" width="13"/>
<edge from="285" id="285to286" to="286" length="9.375" width="13"/>
<edge from="286" id="286to287" to="287" length="9.375" width="13"/>
<edge from="287" id="287to288" to="288" length="9.375" width="13"/>
<edge from="288" id="288to289" to="289" length="9.375" width="13"/>
<edge from="289" id="289to290" to="290" length="9.375" width="13"/>
<edge from="290" id="290to291" to="291" length="9.375" width="13"/>
<edge from="291" id="291to292" to="292" length="9.375" width="13"/>
<edge from="292" id="292to293" to="293" length="9.3747" width="13"/>
<edge from="293" id="293to294" to="294" length="9.375" width="13"/>
<edge from="294" id="294to295" to="295" length="9.375" width="13"/>
<edge from="295" id="295to296" to="296" length="9.375" width="13"/>
<edge from="296" id="296to297" to="297" length="11.6895200945" width="13"/>
<edge from="297" id="297to298" to="298" length="11.6895132598" width="13"/>
<edge from="298" id="298to299" to="299" length="11.6895461845" width="13"/>
<edge from="299" id="299to300" to="300" length="11.6895677598" width="13"/>
<edge from="300" id="300to301" to="301" length="11.6895392895" width="13"/>
<edge from="301" id="301to302" to="302" length="11.6894816874" width="13"/>
<edge from="302" id="302to303" to="303" length="11.6895282219" width="13"/>
<edge from="303" id="303to304" to="304" length="11.6894288013" width="13"/>
<edge from="304" id="304to305" to="305" length="9.52387981445" width="13"/>
<edge from="305" id="305to306" to="306" length="9.52380910403" width="13"/>
<edge from="306" id="306to307" to="307" length="9.52373839309" width="13"/>
<edge from="307" id="307to308" to="308" length="9.52352626342" width="13"/>
<edge from="308" id="308to309" to="309" length="9.5242333807" width="13"/>
<edge from="309" id="309to310" to="310" length="9.52352626342" width="13"/>
<edge from="310" id="310to311" to="311" length="9.5242333807" width="13"/>
<edge from="311" id="311to312" to="312" length="9.52359697593" width="13"/>
<edge from="312" id="312to313" to="313" length="9.52352626342" width="13"/>
<edge from="313" id="313to314" to="314" length="9.52430408796" width="13"/>
<edge from="314" id="314to315" to="315" length="9.52331412902" width="13"/>
<edge from="315" id="315to316" to="316" length="9.52402126205" width="13"/>
<edge from="316" id="316to317" to="317" length="9.52402126205" width="13"/>
<edge from="317" id="317to318" to="318" length="9.52331412902" width="13"/>
<edge from="318" id="318to319" to="319" length="8.93397341612" width="13"/>
<edge from="319" id="319to320" to="320" length="8.93323256162" width="13"/>
<edge from="320" id="320to321" to="321" length="8.93338687173" width="13"/>
<edge from="321" id="321to322" to="322" length="8.93352159006" width="13"/>
<edge from="322" id="322to323" to="323" length="9.09123753952" width="13"/>
<edge from="323" id="323to324" to="324" length="9.09028123877" width="13"/>
<edge from="324" id="324to325" to="325" length="9.09123753952" width="13"/>
<edge from="325" id="325to326" to="326" length="9.09123753952" width="13"/>
<edge from="326" id="326to327" to="327" length="9.09028123877" width="13"/>
<edge from="327" id="327to328" to="328" length="9.09123753952" width="13"/>
<edge from="328" id="328to329" to="329" length="9.09123753952" width="13"/>
<edge from="329" id="329to330" to="330" length="9.09028123877" width="13"/>
<edge from="330" id="330to331" to="331" length="9.09123753952" width="13"/>
<edge from="331" id="331to332" to="332" length="9.09123753952" width="13"/>
<edge from="332" id="332to333" to="333" length="9.09028123877" width="13"/>
<edge from="333" id="333to334" to="334" length="7.34632493156" width="13"/>
<edge from="334" id="334to335" to="335" length="7.34601388509" width="13"/>
<edge from="335" id="335to336" to="336" length="7.34607629963" width="13"/>
<edge from="336" id="336to337" to="337" length="7.34572617241" width="13"/>
<edge from="337" id="337to338" to="338" length="7.34638877272" width="13"/>
<edge from="338" id="338to339" to="339" length="9.52364394547" width="13"/>
<edge from="339" id="339to340" to="340" length="9.52425960377" width="13"/>
<edge from="340" id="340to341" to="341" length="9.52364394547" width="13"/>
<edge from="341" id="341to342" to="342" length="9.52425960377" width="13"/>
<edge from="342" id="342to343" to="343" length="9.52364394547" width="13"/>
<edge from="343" id="343to344" to="344" length="9.52364394547" width="13"/>
<edge from="344" id="344to345" to="345" length="9.52347163591" width="13"/>
<edge from="345" id="345to346" to="346" length="9.64813479383" width="13"/>
<edge from="346" id="346to347" to="347" length="9.64901093377" width="13"/>
<edge from="347" id="347to348" to="348" length="9.64749853589" width="13"/>
<edge from="348" id="348to349" to="349" length="9.64853672844" width="13"/>
<edge from="349" id="349to350" to="350" length="9.64803384115" width="13"/>
<edge from="350" id="350to351" to="351" length="9.64870276255" width="13"/>
<edge from="351" id="351to352" to="352" length="9.6473460081" width="13"/>
<edge from="352" id="352to353" to="353" length="9.64878272115" width="13"/>
<edge from="353" id="353to354" to="354" length="9.64797895935" width="13"/>
<edge from="354" id="354to355" to="355" length="9.64764810718" width="13"/>
<edge from="355" id="355to356" to="356" length="9.6489208723" width="13"/>
<edge from="356" id="356to357" to="357" length="9.64785499476" width="13"/>
<edge from="357" id="357to358" to="358" length="9.64868415899" width="13"/>
<edge from="358" id="358to359" to="359" length="9.64747764962" width="13"/>
<edge from="359" id="359to360" to="360" length="9.64826875662" width="13"/>
<edge from="360" id="360to361" to="361" length="9.64906886699" width="13"/>
<edge from="361" id="361to362" to="362" length="9.64757555036" width="13"/>
<edge from="362" id="362to363" to="363" length="9.64784976044" width="13"/>
<edge from="363" id="363to364" to="364" length="9.64857253691" width="13"/>
<edge from="364" id="364to365" to="365" length="9.64855310396" width="13"/>
<edge from="365" id="365to366" to="366" length="9.64817024104" width="13"/>
<edge from="366" id="366to367" to="367" length="9.64834208556" width="13"/>
<edge from="367" id="367to368" to="368" length="9.64785100424" width="13"/>
<edge from="368" id="368to369" to="369" length="9.64808442127" width="13"/>
<edge from="369" id="369to370" to="370" length="9.64820672457" width="13"/>
<edge from="370" id="370to371" to="371" length="9.6485291107" width="13"/>
<edge from="371" id="371to372" to="372" length="9.64785095241" width="13"/>
<edge from="372" id="372to373" to="373" length="9.64830897101" width="13"/>
<edge from="373" id="373to374" to="374" length="9.09100791992" width="13"/>
<edge from="374" id="374to375" to="375" length="9.09100791992" width="13"/>
<edge from="375" id="375to376" to="376" length="9.09100791992" width="13"/>
<edge from="376" id="376to377" to="377" length="9.09026479262" width="13"/>
<edge from="377" id="377to378" to="378" length="9.09100791992" width="13"/>
<edge from="378" id="378to379" to="379" length="9.09100791992" width="13"/>
<edge from="379" id="379to380" to="380" length="9.09100791992" width="13"/>
<edge from="380" id="380to381" to="381" length="9.09100791992" width="13"/>
<edge from="381" id="381to382" to="382" length="9.09100791992" width="13"/>
<edge from="382" id="382to383" to="383" length="9.09026479262" width="13"/>
<edge from="383" id="383to384" to="384" length="9.09167707302" width="13"/>
<edge from="384" id="384to385" to="385" length="8.94701123281" width="13"/>
<edge from="385" id="385to386" to="386" length="8.94778928004" width="13"/>
<edge from="386" id="386to387" to="387" length="8.94636741924" width="13"/>
<edge from="387" id="387to388" to="388" length="8.94721012383" width="13"/>
<edge from="388" id="388to389" to="389" length="8.94760750145" width="13"/>
<edge from="389" id="389to390" to="390" length="8.94698882306" width="13"/>
<edge from="390" id="390to391" to="391" length="9.52326887156" width="13"/>
<edge from="391" id="391to392" to="392" length="9.52420857604" width="13"/>
<edge from="392" id="392to393" to="393" length="9.52361092233" width="13"/>
<edge from="393" id="393to394" to="394" length="9.52420857604" width="13"/>
<edge from="394" id="394to395" to="395" length="9.52361092233" width="13"/>
<edge from="395" id="395to396" to="396" length="9.52420857604" width="13"/>
<edge from="396" id="396to397" to="397" length="9.52326887156" width="13"/>
<edge from="397" id="397to398" to="398" length="9.9839048473" width="13"/>
<edge from="398" id="398to399" to="399" length="9.98341369472" width="13"/>
<edge from="399" id="399to400" to="400" length="9.98345911996" width="13"/>
<edge from="400" id="400to401" to="401" length="9.9836949072" width="13"/>
<edge from="401" id="401to402" to="402" length="9.98377653997" width="13"/>
<edge from="402" id="402to403" to="403" length="9.98378054647" width="13"/>
<edge from="403" id="403to404" to="404" length="9.98415189187" width="13"/>
<edge from="404" id="404to405" to="405" length="8.33339750642" width="13"/>
<edge from="405" id="405to406" to="406" length="8.33266613996" width="13"/>